<?xml version="1.0" encoding="UTF-8"?>
<!DOCTYPE network SYSTEM "http://www.matsim.org/files/dtd/network_v1.dtd">
<network>

<!-- ====================================================================== -->

	<nodes>
		<node id="1" x="0.0" y="0.0" />
		<node id="2" x="0.0" y="100.0" />
		<node id="3" x="100.0" y="0.0" />
		<node id="4" x="100.0" y="100.0" />
	</nodes>

<!-- ====================================================================== -->

	<links capperiod="01:00:00" effectivecellsize="7.5" effectivelanewidth="3.75">
		<link id="1" from="1" to="2" length="100.0" freespeed="16.66666" capacity="2000.0" permlanes="2.0" oneway="1" modes="car" />
		<link id="2" from="2" to="1" length="100.0" freespeed="16.66666" capacity="2000.0" permlanes="2.0" oneway="1" modes="car" />
		<link id="3" from="2" to="4" length="100.0" freespeed="16.66666" capacity="2000.0" permlanes="2.0" oneway="1" modes="car" />
		<link id="4" from="4" to="2" length="100.0" freespeed="16.66666" capacity="2000.0" permlanes="2.0" oneway="1" modes="car" />
		<link id="5" from="3" to="4" length="100.0" freespeed="16.66666" capacity="2000.0" permlanes="2.0" oneway="1" modes="car" />
		<link id="6" from="4" to="3" length="100.0" freespeed="16.66666" capacity="2000.0" permlanes="2.0" oneway="1" modes="car" />
		<link id="7" from="3" to="1" length="100.0" freespeed="16.66666" capacity="2000.0" permlanes="2.0" oneway="1" modes="car" />
		<link id="8" from="1" to="3" length="100.0" freespeed="16.66666" capacity="2000.0" permlanes="2.0" oneway="1" modes="car" />
	</links>

<!-- ====================================================================== -->

</network>
