<?xml version="1.0" encoding="UTF-8"?>

<!-- generated on 10/01/20 13:43:53 by Eclipse SUMO netconvert Version 1.6.0
<configuration xmlns:xsi="http://www.w3.org/2001/XMLSchema-instance" xsi:noNamespaceSchemaLocation="http://sumo.dlr.de/xsd/netconvertConfiguration.xsd">

    <input>
        <type-files value="C:\home\Development\sumo-1.6.0\data\typemap\osmNetconvert.typ.xml"/>
        <osm-files value="osm_bbox.osm.xml"/>
    </input>

    <output>
        <output-file value="osm.net.xml"/>
        <output.street-names value="true"/>
        <output.original-names value="true"/>
    </output>

    <projection>
        <proj.utm value="true"/>
    </projection>

    <processing>
        <geometry.remove value="true"/>
        <roundabouts.guess value="true"/>
    </processing>

    <tls_building>
        <tls.discard-simple value="true"/>
        <tls.join value="true"/>
        <tls.guess-signals value="true"/>
        <tls.default-type value="actuated"/>
    </tls_building>

    <ramp_guessing>
        <ramps.guess value="true"/>
    </ramp_guessing>

    <edge_removal>
        <keep-edges.by-vclass value="passenger"/>
    </edge_removal>

    <junctions>
        <junctions.join value="true"/>
        <junctions.corner-detail value="5"/>
    </junctions>

    <report>
        <verbose value="true"/>
        <aggregate-warnings value="5"/>
    </report>

</configuration>
-->

<net version="1.6" junctionCornerDetail="5" limitTurnSpeed="5.50" xmlns:xsi="http://www.w3.org/2001/XMLSchema-instance" xsi:noNamespaceSchemaLocation="http://sumo.dlr.de/xsd/net_file.xsd">

    <location netOffset="-385672.63,-5818861.27" convBoundary="0.00,0.00,1265.36,1056.47" origBoundary="13.305909,52.506442,13.335429,52.520621" projParameter="+proj=utm +zone=33 +ellps=WGS84 +datum=WGS84 +units=m +no_defs"/>

    <type id="highway.bridleway" priority="1" numLanes="1" speed="2.78" allow="pedestrian" oneway="1" width="2.00"/>
    <type id="highway.bus_guideway" priority="1" numLanes="1" speed="27.78" allow="bus" oneway="1"/>
    <type id="highway.cycleway" priority="1" numLanes="1" speed="8.33" allow="bicycle" oneway="0" width="1.00"/>
    <type id="highway.footway" priority="1" numLanes="1" speed="2.78" allow="pedestrian" oneway="1" width="2.00"/>
    <type id="highway.ford" priority="1" numLanes="1" speed="2.78" allow="army" oneway="0"/>
    <type id="highway.living_street" priority="2" numLanes="1" speed="2.78" disallow="tram rail_urban rail rail_electric rail_fast ship" oneway="0"/>
    <type id="highway.motorway" priority="14" numLanes="2" speed="39.44" allow="private emergency authority army vip passenger hov taxi bus coach delivery truck trailer motorcycle evehicle custom1 custom2" oneway="1"/>
    <type id="highway.motorway_link" priority="9" numLanes="1" speed="22.22" allow="private emergency authority army vip passenger hov taxi bus coach delivery truck trailer motorcycle evehicle custom1 custom2" oneway="1"/>
    <type id="highway.path" priority="1" numLanes="1" speed="2.78" allow="pedestrian bicycle" oneway="1" width="2.00"/>
    <type id="highway.pedestrian" priority="1" numLanes="1" speed="2.78" allow="pedestrian" oneway="1" width="2.00"/>
    <type id="highway.primary" priority="12" numLanes="2" speed="27.78" disallow="tram rail_urban rail rail_electric rail_fast ship" oneway="0"/>
    <type id="highway.primary_link" priority="7" numLanes="1" speed="22.22" disallow="tram rail_urban rail rail_electric rail_fast ship" oneway="0"/>
    <type id="highway.raceway" priority="15" numLanes="2" speed="83.33" allow="vip" oneway="0"/>
    <type id="highway.residential" priority="3" numLanes="1" speed="13.89" disallow="tram rail_urban rail rail_electric rail_fast ship" oneway="0"/>
    <type id="highway.secondary" priority="11" numLanes="1" speed="27.78" disallow="tram rail_urban rail rail_electric rail_fast ship" oneway="0"/>
    <type id="highway.secondary_link" priority="6" numLanes="1" speed="22.22" disallow="tram rail_urban rail rail_electric rail_fast ship" oneway="0"/>
    <type id="highway.service" priority="1" numLanes="1" speed="5.56" allow="pedestrian delivery bicycle" oneway="0"/>
    <type id="highway.stairs" priority="1" numLanes="1" speed="1.39" allow="pedestrian" oneway="1" width="2.00"/>
    <type id="highway.step" priority="1" numLanes="1" speed="1.39" allow="pedestrian" oneway="1" width="2.00"/>
    <type id="highway.steps" priority="1" numLanes="1" speed="1.39" allow="pedestrian" oneway="1" width="2.00"/>
    <type id="highway.tertiary" priority="10" numLanes="1" speed="22.22" disallow="tram rail_urban rail rail_electric rail_fast ship" oneway="0"/>
    <type id="highway.tertiary_link" priority="5" numLanes="1" speed="22.22" disallow="tram rail_urban rail rail_electric rail_fast ship" oneway="0"/>
    <type id="highway.track" priority="1" numLanes="1" speed="5.56" disallow="tram rail_urban rail rail_electric rail_fast ship" oneway="0"/>
    <type id="highway.trunk" priority="13" numLanes="2" speed="27.78" disallow="pedestrian bicycle tram rail_urban rail rail_electric rail_fast ship" oneway="0"/>
    <type id="highway.trunk_link" priority="8" numLanes="1" speed="22.22" disallow="pedestrian bicycle tram rail_urban rail rail_electric rail_fast ship" oneway="0"/>
    <type id="highway.unclassified" priority="4" numLanes="1" speed="13.89" disallow="tram rail_urban rail rail_electric rail_fast ship" oneway="0"/>
    <type id="highway.unsurfaced" priority="1" numLanes="1" speed="8.33" disallow="tram rail_urban rail rail_electric rail_fast ship" oneway="0"/>
    <type id="railway.highspeed" priority="21" numLanes="1" speed="69.44" allow="rail_fast" oneway="1"/>
    <type id="railway.light_rail" priority="19" numLanes="1" speed="27.78" allow="rail_urban" oneway="1"/>
    <type id="railway.preserved" priority="16" numLanes="1" speed="27.78" allow="rail" oneway="1"/>
    <type id="railway.rail" priority="20" numLanes="1" speed="44.44" allow="rail" oneway="1"/>
    <type id="railway.subway" priority="18" numLanes="1" speed="27.78" allow="rail_urban" oneway="1"/>
    <type id="railway.tram" priority="17" numLanes="1" speed="13.89" allow="tram" oneway="1"/>

    <edge id=":1723927599_0" function="internal">
        <lane id=":1723927599_0_0" index="0" disallow="tram rail_urban rail rail_electric rail_fast ship" speed="13.89" length="7.97" shape="483.13,637.54 482.90,635.28 482.33,633.78 481.71,632.28 481.32,630.03"/>
        <lane id=":1723927599_0_1" index="1" disallow="tram rail_urban rail rail_electric rail_fast ship" speed="13.89" length="7.97" shape="486.33,637.56 486.10,635.23 485.53,633.69 484.91,632.14 484.51,629.82"/>
        <lane id=":1723927599_0_2" index="2" disallow="tram rail_urban rail rail_electric rail_fast ship" speed="13.89" length="7.97" shape="486.33,637.56 486.60,635.18 487.13,633.58 487.60,631.98 487.70,629.61"/>
    </edge>
    <edge id=":21487142_0" function="internal">
        <lane id=":21487142_0_0" index="0" disallow="tram rail_urban rail rail_electric rail_fast ship" speed="13.89" length="13.82" shape="367.60,532.36 365.69,528.78 363.97,526.54 361.75,524.76 358.29,522.59"/>
    </edge>
    <edge id=":21487142_1" function="internal">
        <lane id=":21487142_1_0" index="0" disallow="tram rail_urban rail rail_electric rail_fast ship" speed="13.89" length="14.61" shape="367.60,532.36 366.00,528.29 365.08,525.26 363.63,522.72 360.39,520.13"/>
    </edge>
    <edge id=":21487142_2" function="internal">
        <lane id=":21487142_2_0" index="0" disallow="tram rail_urban rail rail_electric rail_fast ship" speed="13.89" length="16.24" shape="367.60,532.36 366.28,527.70 366.24,523.93 365.60,520.71 362.50,517.67"/>
    </edge>
    <edge id=":21487142_3" function="internal">
        <lane id=":21487142_3_0" index="0" disallow="tram rail_urban rail rail_electric rail_fast ship" speed="13.89" length="15.03" shape="370.47,530.94 368.54,526.46 367.88,523.14 367.98,519.67 368.36,514.72"/>
        <lane id=":21487142_3_1" index="1" disallow="tram rail_urban rail rail_electric rail_fast ship" speed="13.89" length="15.03" shape="373.34,529.51 371.57,525.33 371.02,522.23 371.20,518.98 371.59,514.36"/>
        <lane id=":21487142_3_2" index="2" disallow="tram rail_urban rail rail_electric rail_fast ship" speed="13.89" length="15.03" shape="376.20,528.09 374.60,524.20 374.17,521.31 374.42,518.28 374.81,513.99"/>
        <lane id=":21487142_3_3" index="3" disallow="tram rail_urban rail rail_electric rail_fast ship" speed="13.89" length="15.03" shape="379.07,526.66 377.63,523.07 377.32,520.40 377.63,517.59 378.04,513.62"/>
    </edge>
    <edge id=":21487143_0" function="internal">
        <lane id=":21487143_0_0" index="0" disallow="tram rail_urban rail rail_electric rail_fast ship" speed="11.41" length="18.56" shape="382.42,573.28 383.99,568.47 384.45,564.11 383.81,560.21 382.07,556.76"/>
        <lane id=":21487143_0_1" index="1" disallow="tram rail_urban rail rail_electric rail_fast ship" speed="11.84" length="18.56" shape="386.16,572.66 387.62,567.85 387.86,563.29 386.88,558.98 384.68,554.90"/>
        <lane id=":21487143_0_2" index="2" disallow="tram rail_urban rail rail_electric rail_fast ship" speed="13.57" length="18.56" shape="389.75,572.06 390.69,566.57 390.59,561.58 389.45,557.07 387.28,553.05"/>
    </edge>
    <edge id=":21487143_3" function="internal">
        <lane id=":21487143_3_0" index="0" disallow="tram rail_urban rail rail_electric rail_fast ship" speed="13.89" length="18.70" shape="396.75,569.41 392.57,565.68 390.04,562.78 387.85,559.57 384.68,554.90"/>
        <lane id=":21487143_3_1" index="1" disallow="tram rail_urban rail rail_electric rail_fast ship" speed="13.89" length="18.70" shape="399.27,567.35 395.13,563.67 392.62,560.81 390.43,557.65 387.28,553.05"/>
        <lane id=":21487143_3_2" index="2" disallow="tram rail_urban rail rail_electric rail_fast ship" speed="13.89" length="18.70" shape="401.80,565.29 397.70,561.65 395.19,558.85 393.01,555.74 389.89,551.19"/>
        <lane id=":21487143_3_3" index="3" disallow="tram rail_urban rail rail_electric rail_fast ship" speed="13.89" length="18.70" shape="404.33,563.23 399.95,560.08 397.49,557.27 395.49,553.97 392.50,549.34"/>
    </edge>
    <edge id=":21487144_0" function="internal">
        <lane id=":21487144_0_0" index="0" disallow="tram rail_urban rail rail_electric rail_fast ship" speed="11.20" length="16.89" shape="470.72,598.18 467.75,594.12 464.68,591.21 461.53,589.45 458.28,588.84"/>
        <lane id=":21487144_0_1" index="1" disallow="tram rail_urban rail rail_electric rail_fast ship" speed="11.45" length="16.89" shape="472.04,594.27 469.16,590.53 465.91,587.85 462.29,586.22 458.31,585.64"/>
        <lane id=":21487144_0_2" index="2" disallow="tram rail_urban rail rail_electric rail_fast ship" speed="12.76" length="16.89" shape="473.27,590.63 469.84,587.08 466.21,584.54 462.38,582.99 458.35,582.44"/>
    </edge>
    <edge id=":21487144_3" function="internal">
        <lane id=":21487144_3_0" index="0" disallow="tram rail_urban rail rail_electric rail_fast ship" speed="13.89" length="16.52" shape="474.96,582.84 470.17,584.43 466.80,585.29 463.35,585.62 458.31,585.64"/>
        <lane id=":21487144_3_1" index="1" disallow="tram rail_urban rail rail_electric rail_fast ship" speed="13.89" length="16.52" shape="474.64,579.57 469.95,581.15 466.66,582.03 463.28,582.41 458.35,582.44"/>
        <lane id=":21487144_3_2" index="2" disallow="tram rail_urban rail rail_electric rail_fast ship" speed="13.89" length="16.52" shape="474.32,576.30 469.73,577.87 466.51,578.78 463.21,579.19 458.38,579.24"/>
        <lane id=":21487144_3_3" index="3" disallow="tram rail_urban rail rail_electric rail_fast ship" speed="13.89" length="16.52" shape="474.00,573.03 469.51,574.59 466.36,575.52 463.14,575.97 458.42,576.04"/>
    </edge>
    <edge id=":21487145_0" function="internal">
        <lane id=":21487145_0_0" index="0" disallow="tram rail_urban rail rail_electric rail_fast ship" speed="13.89" length="21.36" shape="534.26,536.54 529.07,538.20 524.58,540.66 520.80,543.94 517.72,548.03"/>
        <lane id=":21487145_0_1" index="1" disallow="tram rail_urban rail rail_electric rail_fast ship" speed="13.89" length="21.36" shape="531.57,533.89 526.61,535.57 522.19,538.21 518.31,541.81 514.98,546.37"/>
        <lane id=":21487145_0_2" index="2" disallow="tram rail_urban rail rail_electric rail_fast ship" speed="13.89" length="21.36" shape="529.11,531.46 523.10,534.02 519.07,536.23 515.84,539.36 512.24,544.71"/>
    </edge>
    <edge id=":21487145_3" function="internal">
        <lane id=":21487145_3_0" index="0" disallow="tram rail_urban rail rail_electric rail_fast ship" speed="13.89" length="21.00" shape="523.39,527.29 522.49,533.70 521.93,538.18 520.69,542.40 517.72,548.03"/>
        <lane id=":21487145_3_1" index="1" disallow="tram rail_urban rail rail_electric rail_fast ship" speed="13.89" length="21.00" shape="520.36,526.07 519.50,532.34 519.02,536.73 517.86,540.86 514.98,546.37"/>
        <lane id=":21487145_3_2" index="2" disallow="tram rail_urban rail rail_electric rail_fast ship" speed="13.89" length="21.00" shape="517.33,524.85 516.52,530.98 516.10,535.28 515.03,539.33 512.24,544.71"/>
        <lane id=":21487145_3_3" index="3" disallow="tram rail_urban rail rail_electric rail_fast ship" speed="13.89" length="21.00" shape="514.29,523.63 513.53,529.62 513.19,533.82 512.20,537.79 509.51,543.05"/>
    </edge>
    <edge id=":21487146_0" function="internal">
        <lane id=":21487146_0_0" index="0" disallow="tram rail_urban rail rail_electric rail_fast ship" speed="13.89" length="24.19" shape="491.25,441.33 491.66,448.26 492.91,453.01 495.61,457.13 500.40,462.17"/>
        <lane id=":21487146_0_1" index="1" disallow="tram rail_urban rail rail_electric rail_fast ship" speed="13.89" length="24.19" shape="488.10,443.62 488.64,450.60 490.16,455.30 493.16,459.37 498.15,464.44"/>
        <lane id=":21487146_0_2" index="2" disallow="tram rail_urban rail rail_electric rail_fast ship" speed="13.89" length="24.19" shape="485.17,445.75 486.47,452.76 488.11,457.47 490.96,461.56 495.89,466.71"/>
        <lane id=":21487146_0_3" index="3" disallow="tram rail_urban rail rail_electric rail_fast ship" speed="13.89" length="24.19" shape="482.27,447.86 483.66,454.96 485.48,459.68 488.54,463.77 493.63,468.98"/>
    </edge>
    <edge id=":21487146_4" function="internal">
        <lane id=":21487146_4_0" index="0" disallow="tram rail_urban rail rail_electric rail_fast ship" speed="13.89" length="23.49" shape="477.46,452.64 484.21,455.08 488.82,456.97 492.92,459.65 498.15,464.44"/>
        <lane id=":21487146_4_1" index="1" disallow="tram rail_urban rail rail_electric rail_fast ship" speed="13.89" length="23.49" shape="475.69,455.38 482.26,457.74 486.77,459.52 490.79,462.07 495.89,466.71"/>
        <lane id=":21487146_4_2" index="2" disallow="tram rail_urban rail rail_electric rail_fast ship" speed="13.89" length="23.49" shape="473.91,458.13 480.31,460.39 484.72,462.07 488.66,464.49 493.63,468.98"/>
    </edge>
    <edge id=":21487148_0" function="internal">
        <lane id=":21487148_0_0" index="0" disallow="tram rail_urban rail rail_electric rail_fast ship" speed="13.89" length="13.20" shape="503.28,568.77 501.01,571.93 499.77,574.31 498.97,576.90 498.04,580.70"/>
    </edge>
    <edge id=":21487148_1" function="internal">
        <lane id=":21487148_1_0" index="0" disallow="tram rail_urban rail rail_electric rail_fast ship" speed="13.89" length="13.90" shape="503.28,568.77 500.47,571.82 498.21,573.75 496.42,575.90 495.01,579.62"/>
    </edge>
    <edge id=":21487148_2" function="internal">
        <lane id=":21487148_2_0" index="0" disallow="tram rail_urban rail rail_electric rail_fast ship" speed="13.89" length="14.18" shape="503.28,568.77 500.20,571.88 497.40,573.18 494.23,574.07 490.06,575.95"/>
        <lane id=":21487148_2_1" index="1" disallow="tram rail_urban rail rail_electric rail_fast ship" speed="13.89" length="14.18" shape="500.74,566.83 497.82,569.78 495.15,570.99 492.11,571.77 488.08,573.39"/>
        <lane id=":21487148_2_2" index="2" disallow="tram rail_urban rail rail_electric rail_fast ship" speed="13.89" length="14.18" shape="498.19,564.88 495.41,567.63 492.85,568.69 489.92,569.33 486.09,570.82"/>
        <lane id=":21487148_2_3" index="3" disallow="tram rail_urban rail rail_electric rail_fast ship" speed="13.89" length="14.18" shape="495.65,562.94 493.01,565.49 490.54,566.39 487.73,566.89 484.09,568.25"/>
    </edge>
    <edge id=":21487168_0" function="internal">
        <lane id=":21487168_0_0" index="0" disallow="tram rail_urban rail rail_electric rail_fast ship" speed="13.89" length="22.07" shape="518.61,486.57 522.13,492.03 525.10,495.38 528.63,498.23 533.86,502.19"/>
    </edge>
    <edge id=":21487168_1" function="internal">
        <lane id=":21487168_1_0" index="0" disallow="tram rail_urban rail rail_electric rail_fast ship" speed="13.89" length="22.39" shape="518.61,486.57 521.79,492.43 523.95,496.54 526.69,500.14 531.59,504.48"/>
    </edge>
    <edge id=":21487168_2" function="internal">
        <lane id=":21487168_2_0" index="0" disallow="tram rail_urban rail rail_electric rail_fast ship" speed="13.89" length="23.29" shape="518.61,486.57 521.47,492.89 522.78,497.72 524.68,502.02 529.33,506.78"/>
    </edge>
    <edge id=":21487168_3" function="internal">
        <lane id=":21487168_3_0" index="0" disallow="tram rail_urban rail rail_electric rail_fast ship" speed="13.89" length="23.47" shape="518.61,486.57 521.94,492.90 523.37,497.64 523.77,502.69 524.03,509.94"/>
        <lane id=":21487168_3_1" index="1" disallow="tram rail_urban rail rail_electric rail_fast ship" speed="13.89" length="23.47" shape="515.86,488.20 519.06,494.37 520.36,499.00 520.67,503.94 520.88,511.01"/>
        <lane id=":21487168_3_2" index="2" disallow="tram rail_urban rail rail_electric rail_fast ship" speed="13.89" length="23.47" shape="513.10,489.82 516.18,495.83 517.36,500.37 517.57,505.19 517.73,512.08"/>
        <lane id=":21487168_3_3" index="3" disallow="tram rail_urban rail rail_electric rail_fast ship" speed="13.89" length="23.47" shape="510.34,491.45 513.29,497.30 514.35,501.73 514.46,506.44 514.58,513.15"/>
    </edge>
    <edge id=":251106770_0" function="internal">
        <lane id=":251106770_0_0" index="0" disallow="tram rail_urban rail rail_electric rail_fast ship" speed="13.89" length="12.94" shape="423.24,585.48 419.45,585.28 416.82,585.59 414.33,586.56 410.94,588.35"/>
    </edge>
    <edge id=":251106770_1" function="internal">
        <lane id=":251106770_1_0" index="0" disallow="tram rail_urban rail rail_electric rail_fast ship" speed="13.89" length="13.13" shape="423.24,585.48 419.37,584.75 416.62,583.87 414.00,583.67 410.55,584.93"/>
    </edge>
    <edge id=":251106770_2" function="internal">
        <lane id=":251106770_2_0" index="0" disallow="tram rail_urban rail rail_electric rail_fast ship" speed="13.89" length="14.05" shape="423.24,585.48 419.18,584.55 416.75,582.84 414.46,580.63 410.83,578.19"/>
        <lane id=":251106770_2_1" index="1" disallow="tram rail_urban rail rail_electric rail_fast ship" speed="13.89" length="14.05" shape="423.51,582.29 419.59,581.35 417.29,579.62 415.12,577.40 411.62,575.00"/>
        <lane id=":251106770_2_2" index="2" disallow="tram rail_urban rail rail_electric rail_fast ship" speed="13.89" length="14.05" shape="423.78,579.11 420.01,578.16 417.82,576.40 415.78,574.17 412.41,571.81"/>
        <lane id=":251106770_2_3" index="3" disallow="tram rail_urban rail rail_electric rail_fast ship" speed="13.89" length="14.05" shape="424.05,575.92 420.42,574.96 418.36,573.18 416.43,570.94 413.20,568.61"/>
    </edge>
    <edge id=":26704031_0" function="internal">
        <lane id=":26704031_0_0" index="0" disallow="tram rail_urban rail rail_electric rail_fast ship" speed="7.66" length="10.28" shape="499.20,366.88 502.05,367.90 504.57,368.07 506.77,367.38 508.64,365.84"/>
    </edge>
    <edge id=":26704031_1" function="internal">
        <lane id=":26704031_1_0" index="0" disallow="tram rail_urban rail rail_electric rail_fast ship" speed="3.65" length="4.67" shape="499.20,366.88 499.93,368.12 499.95,369.01 499.24,369.56 497.81,369.76"/>
    </edge>
    <edge id=":26704031_2" function="internal">
        <lane id=":26704031_2_0" index="0" disallow="tram rail_urban rail rail_electric rail_fast ship" speed="6.12" length="9.06" shape="499.58,377.09 500.82,374.85 500.93,372.88 499.93,371.19 497.81,369.76"/>
    </edge>
    <edge id=":26704031_3" function="internal">
        <lane id=":26704031_3_0" index="0" disallow="tram rail_urban rail rail_electric rail_fast ship" speed="13.89" length="14.34" shape="499.58,377.09 508.64,365.84"/>
        <lane id=":26704031_3_1" index="1" disallow="tram rail_urban rail rail_electric rail_fast ship" speed="13.89" length="14.34" shape="502.13,379.02 511.06,367.94"/>
    </edge>
    <edge id=":26704048_0" function="internal">
        <lane id=":26704048_0_0" index="0" disallow="tram rail_urban rail rail_electric rail_fast ship" speed="13.89" length="7.54" shape="493.90,427.77 493.15,429.66 493.03,431.10 492.98,432.58 492.44,434.57"/>
        <lane id=":26704048_0_1" index="1" disallow="tram rail_urban rail rail_electric rail_fast ship" speed="13.89" length="7.54" shape="491.10,426.23 490.29,428.22 490.13,429.73 490.05,431.27 489.47,433.37"/>
        <lane id=":26704048_0_2" index="2" disallow="tram rail_urban rail rail_electric rail_fast ship" speed="13.89" length="7.54" shape="488.29,424.68 487.43,426.77 487.24,428.35 487.13,429.97 486.50,432.18"/>
        <lane id=":26704048_0_3" index="3" disallow="tram rail_urban rail rail_electric rail_fast ship" speed="13.89" length="7.54" shape="488.29,424.68 486.95,426.61 485.75,427.76 484.63,428.94 483.53,430.98"/>
    </edge>
    <edge id=":26704450_0" function="internal">
        <lane id=":26704450_0_0" index="0" disallow="tram rail_urban rail rail_electric rail_fast ship" speed="10.20" length="10.74" shape="1083.55,460.06 1080.64,460.13 1078.03,460.71 1075.72,461.82 1073.70,463.45"/>
    </edge>
    <edge id=":26704450_1" function="internal">
        <lane id=":26704450_1_0" index="0" disallow="tram rail_urban rail rail_electric rail_fast ship" speed="8.38" length="14.36" shape="1083.55,460.06 1080.14,459.25 1077.65,457.31 1076.07,454.24 1075.40,450.05"/>
    </edge>
    <edge id=":26704450_2" function="internal">
        <lane id=":26704450_2_0" index="0" disallow="tram rail_urban rail rail_electric rail_fast ship" speed="3.65" length="4.67" shape="1083.55,460.06 1082.40,459.19 1082.05,458.36 1082.50,457.59 1083.75,456.87"/>
    </edge>
    <edge id=":26704450_3" function="internal">
        <lane id=":26704450_3_0" index="0" disallow="tram rail_urban rail rail_electric rail_fast ship" speed="6.72" length="8.90" shape="1078.63,450.73 1079.05,453.30 1080.04,455.18 1081.61,456.37 1083.75,456.87"/>
    </edge>
    <edge id=":26704450_4" function="internal">
        <lane id=":26704450_4_0" index="0" disallow="tram rail_urban rail rail_electric rail_fast ship" speed="11.90" length="14.04" shape="1078.63,450.73 1078.45,454.30 1077.56,457.61 1075.98,460.66 1073.70,463.45"/>
    </edge>
    <edge id=":26704450_5" function="internal">
        <lane id=":26704450_5_0" index="0" disallow="tram rail_urban rail rail_electric rail_fast ship" speed="3.69" length="2.17" shape="1078.63,450.73 1077.57,451.77 1076.91,451.94"/>
    </edge>
    <edge id=":26704450_9" function="internal">
        <lane id=":26704450_9_0" index="0" disallow="tram rail_urban rail rail_electric rail_fast ship" speed="3.69" length="2.65" shape="1076.91,451.94 1076.67,452.00 1075.95,451.43 1075.40,450.05"/>
    </edge>
    <edge id=":26704450_6" function="internal">
        <lane id=":26704450_6_0" index="0" disallow="tram rail_urban rail rail_electric rail_fast ship" speed="11.34" length="12.71" shape="1071.03,461.60 1073.06,459.10 1074.46,456.35 1075.24,453.33 1075.40,450.05"/>
    </edge>
    <edge id=":26704450_7" function="internal">
        <lane id=":26704450_7_0" index="0" disallow="tram rail_urban rail rail_electric rail_fast ship" speed="11.11" length="5.21" shape="1071.03,461.60 1073.76,459.35 1075.25,458.59"/>
    </edge>
    <edge id=":26704450_8" function="internal">
        <lane id=":26704450_8_0" index="0" disallow="tram rail_urban rail rail_electric rail_fast ship" speed="3.67" length="2.53" shape="1071.03,461.60 1072.39,461.06 1073.29,461.19 1073.37,461.33"/>
    </edge>
    <edge id=":26704450_10" function="internal">
        <lane id=":26704450_10_0" index="0" disallow="tram rail_urban rail rail_electric rail_fast ship" speed="11.11" length="8.79" shape="1075.25,458.59 1076.79,457.81 1080.12,456.98 1083.75,456.87"/>
    </edge>
    <edge id=":26704450_11" function="internal">
        <lane id=":26704450_11_0" index="0" disallow="tram rail_urban rail rail_electric rail_fast ship" speed="3.67" length="2.21" shape="1073.37,461.33 1073.73,461.98 1073.70,463.45"/>
    </edge>
    <edge id=":26704452_0" function="internal">
        <lane id=":26704452_0_0" index="0" disallow="tram rail_urban rail rail_electric rail_fast ship" speed="3.65" length="4.67" shape="970.48,222.01 970.66,220.58 971.20,219.86 972.09,219.87 973.34,220.59"/>
    </edge>
    <edge id=":26704483_0" function="internal">
        <lane id=":26704483_0_0" index="0" disallow="tram rail_urban rail rail_electric rail_fast ship" speed="3.65" length="4.67" shape="197.91,338.50 196.78,337.60 196.45,336.77 196.91,336.01 198.17,335.31"/>
    </edge>
    <edge id=":26704584_0" function="internal">
        <lane id=":26704584_0_0" index="0" disallow="tram rail_urban rail rail_electric rail_fast ship" speed="13.89" length="24.90" shape="423.59,443.79 430.55,441.38 435.69,440.55 440.60,439.32 446.86,435.72"/>
        <lane id=":26704584_0_1" index="1" disallow="tram rail_urban rail rail_electric rail_fast ship" speed="13.89" length="24.90" shape="424.93,446.70 431.90,444.29 437.06,443.48 441.98,442.26 448.26,438.66"/>
        <lane id=":26704584_0_2" index="2" disallow="tram rail_urban rail rail_electric rail_fast ship" speed="13.89" length="24.90" shape="426.26,449.61 433.25,447.20 438.42,446.39 443.36,445.19 449.65,441.60"/>
    </edge>
    <edge id=":26704584_3" function="internal">
        <lane id=":26704584_3_0" index="0" disallow="tram rail_urban rail rail_electric rail_fast ship" speed="13.89" length="25.26" shape="426.26,449.61 433.24,446.87 438.36,446.02 443.70,446.24 451.31,446.75"/>
        <lane id=":26704584_3_1" index="1" disallow="tram rail_urban rail rail_electric rail_fast ship" speed="13.89" length="25.26" shape="427.60,452.51 434.47,449.87 439.52,449.12 444.78,449.45 452.28,449.99"/>
        <lane id=":26704584_3_2" index="2" disallow="tram rail_urban rail rail_electric rail_fast ship" speed="13.89" length="25.26" shape="428.93,455.42 435.69,452.86 440.67,452.23 445.86,452.65 453.24,453.23"/>
    </edge>
    <edge id=":26704628_0" function="internal">
        <lane id=":26704628_0_0" index="0" disallow="tram rail_urban rail rail_electric rail_fast ship" speed="13.89" length="7.89" shape="445.96,585.51 443.55,585.73 441.91,586.23 440.28,586.67 437.88,586.72"/>
        <lane id=":26704628_0_1" index="1" disallow="tram rail_urban rail rail_electric rail_fast ship" speed="13.89" length="7.89" shape="446.00,582.31 443.65,582.53 442.07,583.03 440.48,583.48 438.15,583.54"/>
        <lane id=":26704628_0_2" index="2" disallow="tram rail_urban rail rail_electric rail_fast ship" speed="13.89" length="7.89" shape="446.03,579.11 443.75,579.33 442.22,579.84 440.69,580.29 438.42,580.35"/>
        <lane id=":26704628_0_3" index="3" disallow="tram rail_urban rail rail_electric rail_fast ship" speed="13.89" length="7.89" shape="446.06,575.91 443.86,576.13 442.37,576.64 440.89,577.09 438.69,577.16"/>
    </edge>
    <edge id=":26785753_0" function="internal">
        <lane id=":26785753_0_0" index="0" disallow="tram rail_urban rail rail_electric rail_fast ship" speed="13.02" length="22.89" shape="354.78,492.01 360.95,491.78 366.31,490.29 370.84,487.55 374.56,483.55"/>
        <lane id=":26785753_0_1" index="1" disallow="tram rail_urban rail rail_electric rail_fast ship" speed="13.89" length="22.89" shape="357.71,495.22 363.72,494.42 368.97,492.52 373.45,489.52 377.17,485.41"/>
        <lane id=":26785753_0_2" index="2" disallow="tram rail_urban rail rail_electric rail_fast ship" speed="13.89" length="22.89" shape="360.53,498.31 366.10,497.45 371.17,495.33 375.73,491.93 379.77,487.27"/>
        <lane id=":26785753_0_3" index="3" disallow="tram rail_urban rail rail_electric rail_fast ship" speed="13.89" length="22.89" shape="363.10,501.13 369.78,499.24 374.35,497.42 378.11,494.46 382.37,489.13"/>
    </edge>
    <edge id=":26785753_4" function="internal">
        <lane id=":26785753_4_0" index="0" disallow="tram rail_urban rail rail_electric rail_fast ship" speed="13.89" length="22.38" shape="369.12,506.20 370.00,499.55 371.18,495.05 373.35,490.92 377.17,485.41"/>
        <lane id=":26785753_4_1" index="1" disallow="tram rail_urban rail rail_electric rail_fast ship" speed="13.89" length="22.38" shape="372.14,507.97 372.95,501.37 374.01,496.87 376.05,492.75 379.77,487.27"/>
        <lane id=":26785753_4_2" index="2" disallow="tram rail_urban rail rail_electric rail_fast ship" speed="13.89" length="22.38" shape="375.16,509.74 375.91,503.19 376.85,498.70 378.74,494.57 382.37,489.13"/>
        <lane id=":26785753_4_3" index="3" disallow="tram rail_urban rail rail_electric rail_fast ship" speed="13.89" length="22.38" shape="378.18,511.51 378.87,505.01 379.68,500.52 381.43,496.40 384.98,490.99"/>
    </edge>
    <edge id=":26903227_0" function="internal">
        <lane id=":26903227_0_0" index="0" disallow="tram rail_urban rail rail_electric rail_fast ship" speed="3.65" length="4.67" shape="677.48,1057.79 676.04,1057.82 675.26,1057.39 675.13,1056.51 675.65,1055.16"/>
    </edge>