<?xml version="1.0" encoding="UTF-8"?>
<!DOCTYPE facilities SYSTEM "http://www.matsim.org/files/dtd/facilities_v1.dtd">
<facilities>

<!-- ====================================================================== -->

	<facility id="f1" x="0.5" y="5.5">
	</facility>

<!-- ====================================================================== -->

	<facility id="f2" x="4.0" y="2.3333333333333335">
	</facility>

<!-- ====================================================================== -->

	<facility id="f3" x="5.0" y="6.0">
	</facility>

<!-- ====================================================================== -->

</facilities>
