<?xml version="1.0" encoding="UTF-8"?>
<!DOCTYPE network SYSTEM "http://www.matsim.org/files/dtd/network_v1.dtd">
<network>

    <nodes>
        <node id="-2" x="93.85" y="110.1" />
        <node id="-1" x="103.85" y="110.1" />
        <node id="1" x="113.85" y="110.1"/>
        <node id="2" x="200" y="110.1"/>
        <node id="3" x="210" y="110.1"/>
        <node id="4" x="220" y="110.1"/>
    </nodes>


    <links capperiod="00:00:01" effectivecellsize="0.26" effectivelanewidth="0.71">

        <link id="0" from="-2" to="-1" length="10.0" freespeed="1.34" capacity="1.8886" permlanes="1.12" oneway="1" modes="car" />
        <link id="1" from="-1" to="1" length="10.0" freespeed="1.34" capacity="1.8886" permlanes="1.12" oneway="1" modes="car" />
        <link id="JPS0" from="1" to="2" length="86.15" freespeed="1.34" capacity="1.8886" permlanes="1.12" oneway="1" modes="car,2ext,ext" />
        <link id="2" from="2" to="3" length="10.0" freespeed="1.34" capacity="1.8886" permlanes="1.12" oneway="1" modes="car,ext2" />
        <link id="3" from="3" to="4" length="10.0" freespeed="1.34" capacity="1.8886" permlanes="1.12" oneway="1" modes="car" />

        <link id="0r" from="-1" to="-2" length="10.0" freespeed="1.34" capacity="1.8886" permlanes="1.12" oneway="1" modes="car" />
        <link id="1r" from="1" to="-1" length="10.0" freespeed="1.34" capacity="1.8886" permlanes="1.12" oneway="1" modes="car,ext2" />
        <link id="JPS0r" from="2" to="1" length="86.15" freespeed="1.34" capacity="1.8886" permlanes="1.12" oneway="1" modes="car,2ext,ext" />
        <link id="2r" from="3" to="2" length="10.0" freespeed="1.34" capacity="1.8886" permlanes="1.12" oneway="1" modes="car" />
        <link id="3r" from="4" to="3" length="10.0" freespeed="1.34" capacity="1.8886" permlanes="1.12" oneway="1" modes="car" />

    </links>



</network>
