<?xml version="1.0" encoding="utf-8"?>
<!DOCTYPE network SYSTEM "http://matsim.org/files/dtd/network_v1.dtd">

<network name="network for test scenario">
<!--

		
	  (1) <================link_1_2 / link_2_1===============> (2)
	   A														A
       |			 (long but uncongested road)			    |
	   |														|
	   |														|
	   |														|
	   |														|
       |														|
       |														|
       |														|
       |														|
       |														|
	   |														|
	   |														|
	   V														V
(0)<=>(3) ==link_3_4 ==> (4) ==link_4_5==> (5) ===link_5_6 ==> (6)<=>(9)
	   |														A
	   |					  (bottleneck)						|
	   |														|
	   |														|
	   |														|
	   |														|
	   |														|
	   V														|
(10)<=>(7) ===================== link_7_8 ====================> (8)
					     (noise sensitive area)
	
-->

<nodes>
	<node id="0" x="-1000" y="9000" />	

	<node id="1" x="0" y="19000" />	
	<node id="2" x="10000" y="19000" />
	
	<node id="3" x="0" y="9000" />
	<node id="4" x="2500" y="9000" />
	<node id="5" x="7500" y="9000" />
	<node id="6" x="10000" y="9000" />

	<node id="7" x="0" y="0" />
	<node id="8" x="10000" y="0" />	
	<node id="9" x="11000" y="9000" />	

	<node id="10" x="-1000" y="0" />	
</nodes>

<links capperiod="1:00:00">

	<link id="link_3_1" from="3" to="1" length="9100.00" capacity="7200" freespeed="13.89" modes="car" permlanes="1" />
	<link id="link_1_2" from="1" to="2" length="10000.00" capacity="7200" freespeed="13.89" modes="car" permlanes="1" />
	<link id="link_2_6" from="2" to="6" length="9100.00" capacity="7200" freespeed="13.89" modes="car" permlanes="1" />

	<link id="link_3_4" from="3" to="4" length="8800.00" capacity="7200" freespeed="13.89" modes="car" permlanes="1" />
	<link id="link_4_5" from="4" to="5" length="10000.00" capacity="360" freespeed="13.89" modes="car" permlanes="1" />
	<link id="link_5_6" from="5" to="6" length="8800.00" capacity="7200" freespeed="13.89" modes="car" permlanes="1" />

	<link id="link_3_7" from="3" to="7" length="9000.00" capacity="7200" freespeed="13.89" modes="car" permlanes="1" />
	<link id="link_7_8" from="7" to="8" length="10000.00" capacity="7200" freespeed="13.89" modes="car" permlanes="1" />
	<link id="link_8_6" from="8" to="6" length="9000.00" capacity="7200" freespeed="13.89" modes="car" permlanes="1" />

	<link id="link_0_3" from="0" to="3" length="1000.00" capacity="7200" freespeed="13.89" modes="car" permlanes="1" />
	<link id="link_3_0" from="3" to="0" length="1000.00" capacity="7200" freespeed="13.89" modes="car" permlanes="1" />
	<link id="link_2_1" from="2" to="1" length="10000.00" capacity="7200" freespeed="13.89" modes="car" permlanes="1" />
	<link id="link_1_3" from="1" to="3" length="2000.00" capacity="7200" freespeed="13.89" modes="car" permlanes="1" />
	<link id="link_6_2" from="6" to="2" length="2000.00" capacity="7200" freespeed="13.89" modes="car" permlanes="1" />
	<link id="link_6_9" from="6" to="9" length="1000.00" capacity="7200" freespeed="13.89" modes="car" permlanes="1" />
	<link id="link_9_6" from="9" to="6" length="1000.00" capacity="7200" freespeed="13.89" modes="car" permlanes="1" />
	
	<link id="link_10_7" from="10" to="7" length="1000.00" capacity="7200" freespeed="13.89" modes="car" permlanes="1" />
	<link id="link_7_10" from="7" to="10" length="1000.00" capacity="7200" freespeed="13.89" modes="car" permlanes="1" />

</links>
</network>