<?xml version="1.0" encoding="utf-8"?>
<!DOCTYPE population SYSTEM "http://www.matsim.org/files/dtd/population_v5.dtd">

<population>

<!-- ====================================================================== -->

	<person id="person_car_2500_-1005_0" employed="no">
		<plan selected="yes">
			<act type="home" x="2500.0" y="-1005.0" end_time="10:10:53" />
			<leg mode="car">
			</leg>
			<act type="work" x="2500.0" y="-5010.0" end_time="16:12:22" />
			<leg mode="car">
			</leg>
			<act type="home" x="2500.0" y="-1005.0" end_time="10:10:53" />
		</plan>

	</person>

<!-- ====================================================================== -->

	<person id="person_car_2500_-1005_1" employed="no">
		<plan selected="yes">
			<act type="home" x="2500.0" y="-1005.0" end_time="10:17:54" />
			<leg mode="car">
			</leg>
			<act type="work" x="2500.0" y="-5010.0" end_time="16:08:15" />
			<leg mode="car">
			</leg>
			<act type="home" x="2500.0" y="-1005.0" end_time="10:17:54" />
		</plan>

	</person>

<!-- ====================================================================== -->

	<person id="person_car_2500_-1005_10" employed="no">
		<plan selected="yes">
			<act type="home" x="2500.0" y="-1005.0" end_time="10:07:57" />
			<leg mode="car">
			</leg>
			<act type="work" x="2500.0" y="-5010.0" end_time="16:20:22" />
			<leg mode="car">
			</leg>
			<act type="home" x="2500.0" y="-1005.0" end_time="10:07:57" />
		</plan>

	</person>

<!-- ====================================================================== -->

	<person id="person_car_2500_-1005_100" employed="no">
		<plan selected="yes">
			<act type="home" x="2500.0" y="-1005.0" end_time="10:22:26" />
			<leg mode="car">
			</leg>
			<act type="work" x="2500.0" y="-5010.0" end_time="16:01:09" />
			<leg mode="car">
			</leg>
			<act type="home" x="2500.0" y="-1005.0" end_time="10:22:26" />
		</plan>

	</person>

<!-- ====================================================================== -->

	<person id="person_car_2500_-1005_1000" employed="no">
		<plan selected="yes">
			<act type="home" x="2500.0" y="-1005.0" end_time="10:08:28" />
			<leg mode="car">
			</leg>
			<act type="work" x="2500.0" y="-5010.0" end_time="16:29:06" />
			<leg mode="car">
			</leg>
			<act type="home" x="2500.0" y="-1005.0" end_time="10:08:28" />
		</plan>

	</person>

<!-- ====================================================================== -->

	<person id="person_car_2500_-1005_1001" employed="no">
		<plan selected="yes">
			<act type="home" x="2500.0" y="-1005.0" end_time="10:01:11" />
			<leg mode="car">
			</leg>
			<act type="work" x="2500.0" y="-5010.0" end_time="16:08:55" />
			<leg mode="car">
			</leg>
			<act type="home" x="2500.0" y="-1005.0" end_time="10:01:11" />
		</plan>

	</person>

<!-- ====================================================================== -->

	<person id="person_car_2500_-1005_1002" employed="no">
		<plan selected="yes">
			<act type="home" x="2500.0" y="-1005.0" end_time="10:23:03" />
			<leg mode="car">
			</leg>
			<act type="work" x="2500.0" y="-5010.0" end_time="16:08:31" />
			<leg mode="car">
			</leg>
			<act type="home" x="2500.0" y="-1005.0" end_time="10:23:03" />
		</plan>

	</person>

<!-- ====================================================================== -->

	<person id="person_car_2500_-1005_1003" employed="no">
		<plan selected="yes">
			<act type="home" x="2500.0" y="-1005.0" end_time="10:16:00" />
			<leg mode="car">
			</leg>
			<act type="work" x="2500.0" y="-5010.0" end_time="16:14:27" />
			<leg mode="car">
			</leg>
			<act type="home" x="2500.0" y="-1005.0" end_time="10:16:00" />
		</plan>

	</person>

<!-- ====================================================================== -->

	<person id="person_car_2500_-1005_1004" employed="no">
		<plan selected="yes">
			<act type="home" x="2500.0" y="-1005.0" end_time="10:09:38" />
			<leg mode="car">
			</leg>
			<act type="work" x="2500.0" y="-5010.0" end_time="16:07:56" />
			<leg mode="car">
			</leg>
			<act type="home" x="2500.0" y="-1005.0" end_time="10:09:38" />
		</plan>

	</person>

<!-- ====================================================================== -->

	<person id="person_car_2500_-1005_1005" employed="no">
		<plan selected="yes">
			<act type="home" x="2500.0" y="-1005.0" end_time="10:14:47" />
			<leg mode="car">
			</leg>
			<act type="work" x="2500.0" y="-5010.0" end_time="16:16:25" />
			<leg mode="car">
			</leg>
			<act type="home" x="2500.0" y="-1005.0" end_time="10:14:47" />
		</plan>

	</person>

<!-- ====================================================================== -->

	<person id="person_car_2500_-1005_1006" employed="no">
		<plan selected="yes">
			<act type="home" x="2500.0" y="-1005.0" end_time="10:24:58" />
			<leg mode="car">
			</leg>
			<act type="work" x="2500.0" y="-5010.0" end_time="16:08:02" />
			<leg mode="car">
			</leg>
			<act type="home" x="2500.0" y="-1005.0" end_time="10:24:58" />
		</plan>

	</person>

<!-- ====================================================================== -->

	<person id="person_car_2500_-1005_1007" employed="no">
		<plan selected="yes">
			<act type="home" x="2500.0" y="-1005.0" end_time="10:20:48" />
			<leg mode="car">
			</leg>
			<act type="work" x="2500.0" y="-5010.0" end_time="16:27:55" />
			<leg mode="car">
			</leg>
			<act type="home" x="2500.0" y="-1005.0" end_time="10:20:48" />
		</plan>

	</person>

<!-- ====================================================================== -->

	<person id="person_car_2500_-1005_1008" employed="no">
		<plan selected="yes">
			<act type="home" x="2500.0" y="-1005.0" end_time="10:16:37" />
			<leg mode="car">
			</leg>
			<act type="work" x="2500.0" y="-5010.0" end_time="16:17:24" />
			<leg mode="car">
			</leg>
			<act type="home" x="2500.0" y="-1005.0" end_time="10:16:37" />
		</plan>

	</person>

<!-- ====================================================================== -->

	<person id="person_car_2500_-1005_1009" employed="no">
		<plan selected="yes">
			<act type="home" x="2500.0" y="-1005.0" end_time="10:22:48" />
			<leg mode="car">
			</leg>
			<act type="work" x="2500.0" y="-5010.0" end_time="16:29:32" />
			<leg mode="car">
			</leg>
			<act type="home" x="2500.0" y="-1005.0" end_time="10:22:48" />
		</plan>

	</person>

<!-- ====================================================================== -->

	<person id="person_car_2500_-1005_101" employed="no">
		<plan selected="yes">
			<act type="home" x="2500.0" y="-1005.0" end_time="10:02:24" />
			<leg mode="car">
			</leg>
			<act type="work" x="2500.0" y="-5010.0" end_time="16:06:33" />
			<leg mode="car">
			</leg>
			<act type="home" x="2500.0" y="-1005.0" end_time="10:02:24" />
		</plan>

	</person>

<!-- ====================================================================== -->

	<person id="person_car_2500_-1005_1010" employed="no">
		<plan selected="yes">
			<act type="home" x="2500.0" y="-1005.0" end_time="10:27:47" />
			<leg mode="car">
			</leg>
			<act type="work" x="2500.0" y="-5010.0" end_time="16:00:55" />
			<leg mode="car">
			</leg>
			<act type="home" x="2500.0" y="-1005.0" end_time="10:27:47" />
		</plan>

	</person>

<!-- ====================================================================== -->

	<person id="person_car_2500_-1005_1011" employed="no">
		<plan selected="yes">
			<act type="home" x="2500.0" y="-1005.0" end_time="10:08:24" />
			<leg mode="car">
			</leg>
			<act type="work" x="2500.0" y="-5010.0" end_time="16:29:20" />
			<leg mode="car">
			</leg>
			<act type="home" x="2500.0" y="-1005.0" end_time="10:08:24" />
		</plan>

	</person>

<!-- ====================================================================== -->

	<person id="person_car_2500_-1005_1012" employed="no">
		<plan selected="yes">
			<act type="home" x="2500.0" y="-1005.0" end_time="10:01:08" />
			<leg mode="car">
			</leg>
			<act type="work" x="2500.0" y="-5010.0" end_time="16:07:29" />
			<leg mode="car">
			</leg>
			<act type="home" x="2500.0" y="-1005.0" end_time="10:01:08" />
		</plan>

	</person>

<!-- ====================================================================== -->

	<person id="person_car_2500_-1005_1013" employed="no">
		<plan selected="yes">
			<act type="home" x="2500.0" y="-1005.0" end_time="10:11:02" />
			<leg mode="car">
			</leg>
			<act type="work" x="2500.0" y="-5010.0" end_time="16:16:49" />
			<leg mode="car">
			</leg>
			<act type="home" x="2500.0" y="-1005.0" end_time="10:11:02" />
		</plan>

	</person>

<!-- ====================================================================== -->

	<person id="person_car_2500_-1005_1014" employed="no">
		<plan selected="yes">
			<act type="home" x="2500.0" y="-1005.0" end_time="10:24:17" />
			<leg mode="car">
			</leg>
			<act type="work" x="2500.0" y="-5010.0" end_time="16:23:46" />
			<leg mode="car">
			</leg>
			<act type="home" x="2500.0" y="-1005.0" end_time="10:24:17" />
		</plan>

	</person>

<!-- ====================================================================== -->

	<person id="person_car_2500_-1005_1015" employed="no">
		<plan selected="yes">
			<act type="home" x="2500.0" y="-1005.0" end_time="10:17:34" />
			<leg mode="car">
			</leg>
			<act type="work" x="2500.0" y="-5010.0" end_time="16:28:29" />
			<leg mode="car">
			</leg>
			<act type="home" x="2500.0" y="-1005.0" end_time="10:17:34" />
		</plan>

	</person>

<!-- ====================================================================== -->

	<person id="person_car_2500_-1005_1016" employed="no">
		<plan selected="yes">
			<act type="home" x="2500.0" y="-1005.0" end_time="10:16:15" />
			<leg mode="car">
			</leg>
			<act type="work" x="2500.0" y="-5010.0" end_time="16:20:35" />
			<leg mode="car">
			</leg>
			<act type="home" x="2500.0" y="-1005.0" end_time="10:16:15" />
		</plan>

	</person>

<!-- ====================================================================== -->

	<person id="person_car_2500_-1005_1017" employed="no">
		<plan selected="yes">
			<act type="home" x="2500.0" y="-1005.0" end_time="10:21:08" />
			<leg mode="car">
			</leg>
			<act type="work" x="2500.0" y="-5010.0" end_time="16:01:16" />
			<leg mode="car">
			</leg>
			<act type="home" x="2500.0" y="-1005.0" end_time="10:21:08" />
		</plan>

	</person>

<!-- ====================================================================== -->

	<person id="person_car_2500_-1005_1018" employed="no">
		<plan selected="yes">
			<act type="home" x="2500.0" y="-1005.0" end_time="10:10:48" />
			<leg mode="car">
			</leg>
			<act type="work" x="2500.0" y="-5010.0" end_time="16:23:08" />
			<leg mode="car">
			</leg>
			<act type="home" x="2500.0" y="-1005.0" end_time="10:10:48" />
		</plan>

	</person>

<!-- ====================================================================== -->

	<person id="person_car_2500_-1005_1019" employed="no">
		<plan selected="yes">
			<act type="home" x="2500.0" y="-1005.0" end_time="10:05:23" />
			<leg mode="car">
			</leg>
			<act type="work" x="2500.0" y="-5010.0" end_time="16:19:22" />
			<leg mode="car">
			</leg>
			<act type="home" x="2500.0" y="-1005.0" end_time="10:05:23" />
		</plan>

	</person>

<!-- ====================================================================== -->

	<person id="person_car_2500_-1005_102" employed="no">
		<plan selected="yes">
			<act type="home" x="2500.0" y="-1005.0" end_time="10:29:11" />
			<leg mode="car">
			</leg>
			<act type="work" x="2500.0" y="-5010.0" end_time="16:06:16" />
			<leg mode="car">
			</leg>
			<act type="home" x="2500.0" y="-1005.0" end_time="10:29:11" />
		</plan>

	</person>

<!-- ====================================================================== -->

	<person id="person_car_2500_-1005_1020" employed="no">
		<plan selected="yes">
			<act type="home" x="2500.0" y="-1005.0" end_time="10:06:18" />
			<leg mode="car">
			</leg>
			<act type="work" x="2500.0" y="-5010.0" end_time="16:17:24" />
			<leg mode="car">
			</leg>
			<act type="home" x="2500.0" y="-1005.0" end_time="10:06:18" />
		</plan>

	</person>

<!-- ====================================================================== -->

	<person id="person_car_2500_-1005_1021" employed="no">
		<plan selected="yes">
			<act type="home" x="2500.0" y="-1005.0" end_time="10:10:34" />
			<leg mode="car">
			</leg>
			<act type="work" x="2500.0" y="-5010.0" end_time="16:00:18" />
			<leg mode="car">
			</leg>
			<act type="home" x="2500.0" y="-1005.0" end_time="10:10:34" />
		</plan>

	</person>

<!-- ====================================================================== -->

	<person id="person_car_2500_-1005_1022" employed="no">
		<plan selected="yes">
			<act type="home" x="2500.0" y="-1005.0" end_time="10:14:35" />
			<leg mode="car">
			</leg>
			<act type="work" x="2500.0" y="-5010.0" end_time="16:12:23" />
			<leg mode="car">
			</leg>
			<act type="home" x="2500.0" y="-1005.0" end_time="10:14:35" />
		</plan>

	</person>

<!-- ====================================================================== -->

	<person id="person_car_2500_-1005_1023" employed="no">
		<plan selected="yes">
			<act type="home" x="2500.0" y="-1005.0" end_time="10:10:36" />
			<leg mode="car">
			</leg>
			<act type="work" x="2500.0" y="-5010.0" end_time="16:27:05" />
			<leg mode="car">
			</leg>
			<act type="home" x="2500.0" y="-1005.0" end_time="10:10:36" />
		</plan>

	</person>

<!-- ====================================================================== -->

	<person id="person_car_2500_-1005_1024" employed="no">
		<plan selected="yes">
			<act type="home" x="2500.0" y="-1005.0" end_time="10:02:26" />
			<leg mode="car">
			</leg>
			<act type="work" x="2500.0" y="-5010.0" end_time="16:20:10" />
			<leg mode="car">
			</leg>
			<act type="home" x="2500.0" y="-1005.0" end_time="10:02:26" />
		</plan>

	</person>

<!-- ====================================================================== -->

	<person id="person_car_2500_-1005_1025" employed="no">
		<plan selected="yes">
			<act type="home" x="2500.0" y="-1005.0" end_time="10:11:26" />
			<leg mode="car">
			</leg>
			<act type="work" x="2500.0" y="-5010.0" end_time="16:15:43" />
			<leg mode="car">
			</leg>
			<act type="home" x="2500.0" y="-1005.0" end_time="10:11:26" />
		</plan>

	</person>

<!-- ====================================================================== -->

	<person id="person_car_2500_-1005_1026" employed="no">
		<plan selected="yes">
			<act type="home" x="2500.0" y="-1005.0" end_time="10:18:54" />
			<leg mode="car">
			</leg>
			<act type="work" x="2500.0" y="-5010.0" end_time="16:15:14" />
			<leg mode="car">
			</leg>
			<act type="home" x="2500.0" y="-1005.0" end_time="10:18:54" />
		</plan>

	</person>

<!-- ====================================================================== -->

	<person id="person_car_2500_-1005_1027" employed="no">
		<plan selected="yes">
			<act type="home" x="2500.0" y="-1005.0" end_time="10:16:13" />
			<leg mode="car">
			</leg>
			<act type="work" x="2500.0" y="-5010.0" end_time="16:20:10" />
			<leg mode="car">
			</leg>
			<act type="home" x="2500.0" y="-1005.0" end_time="10:16:13" />
		</plan>

	</person>

<!-- ====================================================================== -->

	<person id="person_car_2500_-1005_1028" employed="no">
		<plan selected="yes">
			<act type="home" x="2500.0" y="-1005.0" end_time="10:29:35" />
			<leg mode="car">
			</leg>
			<act type="work" x="2500.0" y="-5010.0" end_time="16:08:54" />
			<leg mode="car">
			</leg>
			<act type="home" x="2500.0" y="-1005.0" end_time="10:29:35" />
		</plan>

	</person>

<!-- ====================================================================== -->

	<person id="person_car_2500_-1005_1029" employed="no">
		<plan selected="yes">
			<act type="home" x="2500.0" y="-1005.0" end_time="10:21:11" />
			<leg mode="car">
			</leg>
			<act type="work" x="2500.0" y="-5010.0" end_time="16:21:08" />
			<leg mode="car">
			</leg>
			<act type="home" x="2500.0" y="-1005.0" end_time="10:21:11" />
		</plan>

	</person>

<!-- ====================================================================== -->

	<person id="person_car_2500_-1005_103" employed="no">
		<plan selected="yes">
			<act type="home" x="2500.0" y="-1005.0" end_time="10:08:42" />
			<leg mode="car">
			</leg>
			<act type="work" x="2500.0" y="-5010.0" end_time="16:04:24" />
			<leg mode="car">
			</leg>
			<act type="home" x="2500.0" y="-1005.0" end_time="10:08:42" />
		</plan>

	</person>

<!-- ====================================================================== -->

	<person id="person_car_2500_-1005_1030" employed="no">
		<plan selected="yes">
			<act type="home" x="2500.0" y="-1005.0" end_time="10:15:27" />
			<leg mode="car">
			</leg>
			<act type="work" x="2500.0" y="-5010.0" end_time="16:15:29" />
			<leg mode="car">
			</leg>
			<act type="home" x="2500.0" y="-1005.0" end_time="10:15:27" />
		</plan>

	</person>

<!-- ====================================================================== -->

	<person id="person_car_2500_-1005_1031" employed="no">
		<plan selected="yes">
			<act type="home" x="2500.0" y="-1005.0" end_time="10:28:15" />
			<leg mode="car">
			</leg>
			<act type="work" x="2500.0" y="-5010.0" end_time="16:29:31" />
			<leg mode="car">
			</leg>
			<act type="home" x="2500.0" y="-1005.0" end_time="10:28:15" />
		</plan>

	</person>

<!-- ====================================================================== -->

	<person id="person_car_2500_-1005_1032" employed="no">
		<plan selected="yes">
			<act type="home" x="2500.0" y="-1005.0" end_time="10:18:47" />
			<leg mode="car">
			</leg>
			<act type="work" x="2500.0" y="-5010.0" end_time="16:03:52" />
			<leg mode="car">
			</leg>
			<act type="home" x="2500.0" y="-1005.0" end_time="10:18:47" />
		</plan>

	</person>

<!-- ====================================================================== -->

	<person id="person_car_2500_-1005_1033" employed="no">
		<plan selected="yes">
			<act type="home" x="2500.0" y="-1005.0" end_time="10:25:21" />
			<leg mode="car">
			</leg>
			<act type="work" x="2500.0" y="-5010.0" end_time="16:22:06" />
			<leg mode="car">
			</leg>
			<act type="home" x="2500.0" y="-1005.0" end_time="10:25:21" />
		</plan>

	</person>

<!-- ====================================================================== -->

	<person id="person_car_2500_-1005_1034" employed="no">
		<plan selected="yes">
			<act type="home" x="2500.0" y="-1005.0" end_time="10:01:45" />
			<leg mode="car">
			</leg>
			<act type="work" x="2500.0" y="-5010.0" end_time="16:20:00" />
			<leg mode="car">
			</leg>
			<act type="home" x="2500.0" y="-1005.0" end_time="10:01:45" />
		</plan>

	</person>

<!-- ====================================================================== -->

	<person id="person_car_2500_-1005_1035" employed="no">
		<plan selected="yes">
			<act type="home" x="2500.0" y="-1005.0" end_time="10:24:39" />
			<leg mode="car">
			</leg>
			<act type="work" x="2500.0" y="-5010.0" end_time="16:12:47" />
			<leg mode="car">
			</leg>
			<act type="home" x="2500.0" y="-1005.0" end_time="10:24:39" />
		</plan>

	</person>

<!-- ====================================================================== -->

	<person id="person_car_2500_-1005_1036" employed="no">
		<plan selected="yes">
			<act type="home" x="2500.0" y="-1005.0" end_time="10:25:37" />
			<leg mode="car">
			</leg>
			<act type="work" x="2500.0" y="-5010.0" end_time="16:25:16" />
			<leg mode="car">
			</leg>
			<act type="home" x="2500.0" y="-1005.0" end_time="10:25:37" />
		</plan>

	</person>

<!-- ====================================================================== -->

	<person id="person_car_2500_-1005_1037" employed="no">
		<plan selected="yes">
			<act type="home" x="2500.0" y="-1005.0" end_time="10:20:40" />
			<leg mode="car">
			</leg>
			<act type="work" x="2500.0" y="-5010.0" end_time="16:01:28" />
			<leg mode="car">
			</leg>
			<act type="home" x="2500.0" y="-1005.0" end_time="10:20:40" />
		</plan>

	</person>

<!-- ====================================================================== -->

	<person id="person_car_2500_-1005_1038" employed="no">
		<plan selected="yes">
			<act type="home" x="2500.0" y="-1005.0" end_time="10:17:47" />
			<leg mode="car">
			</leg>
			<act type="work" x="2500.0" y="-5010.0" end_time="16:19:28" />
			<leg mode="car">
			</leg>
			<act type="home" x="2500.0" y="-1005.0" end_time="10:17:47" />
		</plan>

	</person>

<!-- ====================================================================== -->

	<person id="person_car_2500_-1005_1039" employed="no">
		<plan selected="yes">
			<act type="home" x="2500.0" y="-1005.0" end_time="10:06:17" />
			<leg mode="car">
			</leg>
			<act type="work" x="2500.0" y="-5010.0" end_time="16:00:42" />
			<leg mode="car">
			</leg>
			<act type="home" x="2500.0" y="-1005.0" end_time="10:06:17" />
		</plan>

	</person>

<!-- ====================================================================== -->

	<person id="person_car_2500_-1005_104" employed="no">
		<plan selected="yes">
			<act type="home" x="2500.0" y="-1005.0" end_time="10:08:50" />
			<leg mode="car">
			</leg>
			<act type="work" x="2500.0" y="-5010.0" end_time="16:27:41" />
			<leg mode="car">
			</leg>
			<act type="home" x="2500.0" y="-1005.0" end_time="10:08:50" />
		</plan>

	</person>

<!-- ====================================================================== -->

	<person id="person_car_2500_-1005_1040" employed="no">
		<plan selected="yes">
			<act type="home" x="2500.0" y="-1005.0" end_time="10:13:24" />
			<leg mode="car">
			</leg>
			<act type="work" x="2500.0" y="-5010.0" end_time="16:17:58" />
			<leg mode="car">
			</leg>
			<act type="home" x="2500.0" y="-1005.0" end_time="10:13:24" />
		</plan>

	</person>

<!-- ====================================================================== -->

	<person id="person_car_2500_-1005_1041" employed="no">
		<plan selected="yes">
			<act type="home" x="2500.0" y="-1005.0" end_time="10:03:34" />
			<leg mode="car">
			</leg>
			<act type="work" x="2500.0" y="-5010.0" end_time="16:20:06" />
			<leg mode="car">
			</leg>
			<act type="home" x="2500.0" y="-1005.0" end_time="10:03:34" />
		</plan>

	</person>

<!-- ====================================================================== -->

	<person id="person_car_2500_-1005_1042" employed="no">
		<plan selected="yes">
			<act type="home" x="2500.0" y="-1005.0" end_time="10:24:44" />
			<leg mode="car">
			</leg>
			<act type="work" x="2500.0" y="-5010.0" end_time="16:28:44" />
			<leg mode="car">
			</leg>
			<act type="home" x="2500.0" y="-1005.0" end_time="10:24:44" />
		</plan>

	</person>

<!-- ====================================================================== -->

	<person id="person_car_2500_-1005_1043" employed="no">
		<plan selected="yes">
			<act type="home" x="2500.0" y="-1005.0" end_time="10:28:48" />
			<leg mode="car">
			</leg>
			<act type="work" x="2500.0" y="-5010.0" end_time="16:19:12" />
			<leg mode="car">
			</leg>
			<act type="home" x="2500.0" y="-1005.0" end_time="10:28:48" />
		</plan>

	</person>

<!-- ====================================================================== -->

	<person id="person_car_2500_-1005_1044" employed="no">
		<plan selected="yes">
			<act type="home" x="2500.0" y="-1005.0" end_time="10:27:14" />
			<leg mode="car">
			</leg>
			<act type="work" x="2500.0" y="-5010.0" end_time="16:17:22" />
			<leg mode="car">
			</leg>
			<act type="home" x="2500.0" y="-1005.0" end_time="10:27:14" />
		</plan>

	</person>

<!-- ====================================================================== -->

	<person id="person_car_2500_-1005_1045" employed="no">
		<plan selected="yes">
			<act type="home" x="2500.0" y="-1005.0" end_time="10:17:16" />
			<leg mode="car">
			</leg>
			<act type="work" x="2500.0" y="-5010.0" end_time="16:00:39" />
			<leg mode="car">
			</leg>
			<act type="home" x="2500.0" y="-1005.0" end_time="10:17:16" />
		</plan>

	</person>

<!-- ====================================================================== -->

	<person id="person_car_2500_-1005_1046" employed="no">
		<plan selected="yes">
			<act type="home" x="2500.0" y="-1005.0" end_time="10:05:15" />
			<leg mode="car">
			</leg>
			<act type="work" x="2500.0" y="-5010.0" end_time="16:06:25" />
			<leg mode="car">
			</leg>
			<act type="home" x="2500.0" y="-1005.0" end_time="10:05:15" />
		</plan>

	</person>

<!-- ====================================================================== -->

	<person id="person_car_2500_-1005_1047" employed="no">
		<plan selected="yes">
			<act type="home" x="2500.0" y="-1005.0" end_time="10:12:32" />
			<leg mode="car">
			</leg>
			<act type="work" x="2500.0" y="-5010.0" end_time="16:08:30" />
			<leg mode="car">
			</leg>
			<act type="home" x="2500.0" y="-1005.0" end_time="10:12:32" />
		</plan>

	</person>

<!-- ====================================================================== -->

	<person id="person_car_2500_-1005_1048" employed="no">
		<plan selected="yes">
			<act type="home" x="2500.0" y="-1005.0" end_time="10:02:25" />
			<leg mode="car">
			</leg>
			<act type="work" x="2500.0" y="-5010.0" end_time="16:29:31" />
			<leg mode="car">
			</leg>
			<act type="home" x="2500.0" y="-1005.0" end_time="10:02:25" />
		</plan>

	</person>

<!-- ====================================================================== -->

	<person id="person_car_2500_-1005_1049" employed="no">
		<plan selected="yes">
			<act type="home" x="2500.0" y="-1005.0" end_time="10:27:53" />
			<leg mode="car">
			</leg>
			<act type="work" x="2500.0" y="-5010.0" end_time="16:19:20" />
			<leg mode="car">
			</leg>
			<act type="home" x="2500.0" y="-1005.0" end_time="10:27:53" />
		</plan>

	</person>

<!-- ====================================================================== -->

	<person id="person_car_2500_-1005_105" employed="no">
		<plan selected="yes">
			<act type="home" x="2500.0" y="-1005.0" end_time="10:28:58" />
			<leg mode="car">
			</leg>
			<act type="work" x="2500.0" y="-5010.0" end_time="16:15:49" />
			<leg mode="car">
			</leg>
			<act type="home" x="2500.0" y="-1005.0" end_time="10:28:58" />
		</plan>

	</person>

<!-- ====================================================================== -->

	<person id="person_car_2500_-1005_1050" employed="no">
		<plan selected="yes">
			<act type="home" x="2500.0" y="-1005.0" end_time="10:12:49" />
			<leg mode="car">
			</leg>
			<act type="work" x="2500.0" y="-5010.0" end_time="16:00:45" />
			<leg mode="car">
			</leg>
			<act type="home" x="2500.0" y="-1005.0" end_time="10:12:49" />
		</plan>

	</person>

<!-- ====================================================================== -->

	<person id="person_car_2500_-1005_1051" employed="no">
		<plan selected="yes">
			<act type="home" x="2500.0" y="-1005.0" end_time="10:04:09" />
			<leg mode="car">
			</leg>
			<act type="work" x="2500.0" y="-5010.0" end_time="16:28:23" />
			<leg mode="car">
			</leg>
			<act type="home" x="2500.0" y="-1005.0" end_time="10:04:09" />
		</plan>

	</person>

<!-- ====================================================================== -->

	<person id="person_car_2500_-1005_1052" employed="no">
		<plan selected="yes">
			<act type="home" x="2500.0" y="-1005.0" end_time="10:18:19" />
			<leg mode="car">
			</leg>
			<act type="work" x="2500.0" y="-5010.0" end_time="16:06:12" />
			<leg mode="car">
			</leg>
			<act type="home" x="2500.0" y="-1005.0" end_time="10:18:19" />
		</plan>

	</person>

<!-- ====================================================================== -->

	<person id="person_car_2500_-1005_1053" employed="no">
		<plan selected="yes">
			<act type="home" x="2500.0" y="-1005.0" end_time="10:07:11" />
			<leg mode="car">
			</leg>
			<act type="work" x="2500.0" y="-5010.0" end_time="16:18:35" />
			<leg mode="car">
			</leg>
			<act type="home" x="2500.0" y="-1005.0" end_time="10:07:11" />
		</plan>

	</person>

<!-- ====================================================================== -->

	<person id="person_car_2500_-1005_1054" employed="no">
		<plan selected="yes">
			<act type="home" x="2500.0" y="-1005.0" end_time="10:24:43" />
			<leg mode="car">
			</leg>
			<act type="work" x="2500.0" y="-5010.0" end_time="16:05:57" />
			<leg mode="car">
			</leg>
			<act type="home" x="2500.0" y="-1005.0" end_time="10:24:43" />
		</plan>

	</person>

<!-- ====================================================================== -->

	<person id="person_car_2500_-1005_1055" employed="no">
		<plan selected="yes">
			<act type="home" x="2500.0" y="-1005.0" end_time="10:12:09" />
			<leg mode="car">
			</leg>
			<act type="work" x="2500.0" y="-5010.0" end_time="16:25:37" />
			<leg mode="car">
			</leg>
			<act type="home" x="2500.0" y="-1005.0" end_time="10:12:09" />
		</plan>

	</person>

<!-- ====================================================================== -->

	<person id="person_car_2500_-1005_1056" employed="no">
		<plan selected="yes">
			<act type="home" x="2500.0" y="-1005.0" end_time="10:16:10" />
			<leg mode="car">
			</leg>
			<act type="work" x="2500.0" y="-5010.0" end_time="16:03:18" />
			<leg mode="car">
			</leg>
			<act type="home" x="2500.0" y="-1005.0" end_time="10:16:10" />
		</plan>

	</person>

<!-- ====================================================================== -->

	<person id="person_car_2500_-1005_1057" employed="no">
		<plan selected="yes">
			<act type="home" x="2500.0" y="-1005.0" end_time="10:07:55" />
			<leg mode="car">
			</leg>
			<act type="work" x="2500.0" y="-5010.0" end_time="16:20:25" />
			<leg mode="car">
			</leg>
			<act type="home" x="2500.0" y="-1005.0" end_time="10:07:55" />
		</plan>

	</person>

<!-- ====================================================================== -->

	<person id="person_car_2500_-1005_1058" employed="no">
		<plan selected="yes">
			<act type="home" x="2500.0" y="-1005.0" end_time="10:01:11" />
			<leg mode="car">
			</leg>