<?xml version="1.0" encoding="utf-8"?>
<!DOCTYPE plans SYSTEM "http://www.matsim.org/files/dtd/plans_v4.dtd">

<plans name="test-plans_v4 for triangle network" xml:lang="de-CH">

	<person id="1" sex="f" age="27" license="yes" car_avail="sometimes" employed="yes">
		<travelcard type="ch-GA" />

		<knowledge desc="knowledge of person 1">
			<activity type="home">
				<location type="link" id="110">
					<capacity value="3" />
					<opentime day="wk" start_time="00:00:00" end_time="24:00:00" />
				</location>
			</activity>

			<activity type="leisure">
				<location type="link" id="105">
					<opentime day="wk" start_time="08:00:00" end_time="20:00:00" />
				</location>
				<location type="link" id="107">
					<capacity value="50" />
					<opentime day="wk" start_time="16:00:00" end_time="20:00:00" />
				</location>
			</activity>

			<activity type="shop">
				<location type="link" id="100">
					<capacity value="3000" />
					<opentime day="sat" start_time="09:00:00" end_time="17:00:00" />
					<opentime day="wkday" start_time="07:30:00" end_time="20:00:00" />
				</location>
				<location type="link" id="109">
					<capacity value="50" />
					<opentime day="sat" start_time="09:00:00" end_time="16:00:00" />
					<opentime day="wkday" start_time="09:00:00" end_time="18:30:00" />
				</location>
			</activity>

			<activity type="work">
				<location type="link" id="100">
					<capacity value="6" />
					<opentime day="wkday" start_time="07:00:00" end_time="20:00:00" />
				</location>
				<location type="link" id="103">
					<capacity value="60" />
					<opentime day="wkday" start_time="08:00:00" end_time="18:00:00" />
				</location>
			</activity>

		</knowledge>

		<plan score="0.0" age="0" selected="no">
			<act type="h" link="110" start_time="00:00:00" dur="08:00:00" end_time="08:00:00" />
			<leg num="0" mode="car" dep_time="08:00:00" trav_time="00:00:00" arr_time="08:00:00">
				<route type="num-nodes" dist="111.0" trav_time="00:00:00" num_nodes="2" num_intersects="2">
					12 1
				</route>
			</leg>
			<act type="w" link="100" start_time="08:00:00" dur="09:00:00" end_time="17:00:00" />
			<leg num="1" mode="car" dep_time="17:00:00" trav_time="00:00:00" arr_time="17:00:00">
				<route type="num-nodes" dist="666.0" trav_time="00:00:00" num_nodes="4" num_intersects="4">
					2 9 10 11
				</route>
			</leg>
			<act type="h" link="110" start_time="17:00:00" dur="07:00:00" end_time="24:00:00" />
		</plan>

		<plan score="1.0" age="1" selected="yes">
			<act type="h" link="110" start_time="00:00:00" dur="08:00:00" end_time="08:00:00" />
			<leg num="0" mode="car" dep_time="08:00:00" trav_time="00:00:00" arr_time="08:00:00">
				<route type="num-nodes" dist="444.0" trav_time="00:00:00" num_nodes="5" num_intersects="5">
					12 1 2 3 4
				</route>
			</leg>
			<act type="w" link="103" start_time="08:00:00" dur="09:00:00" end_time="17:00:00" />
			<leg num="1" mode="car" dep_time="17:00:00" trav_time="00:00:00" arr_time="17:00:00">
				<route type="num-nodes" dist="1332.0" trav_time="00:00:00" num_nodes="7" num_intersects="7">
					5 6 1 2 9 10 11
				</route>
			</leg>
			<act type="h" link="110" start_time="17:00:00" dur="07:00:00" end_time="24:00:00" />
		</plan>

	</person>

	<person id="2" sex="m" age="31" license="yes" car_avail="always" employed="yes">
		<knowledge desc="knowledge of person 2">
			<activity type="education">
				<location type="link" id="103">
					<capacity value="12" />
					<opentime day="wkday" start_time="18:00:00" end_time="19:00:00" />
				</location>
				<location type="link" id="108">
					<capacity value="40" />
					<opentime day="wkday" start_time="09:00:00" end_time="16:00:00" />
				</location>
				<location type="link" id="109">
					<capacity value="300" />
					<opentime day="wkday" start_time="09:00:00" end_time="18:00:00" />
				</location>
			</activity>

			<activity type="home">
				<location type="link" id="102">
					<capacity value="1" />
					<opentime day="wk" start_time="00:00:00" end_time="24:00:00" />
				</location>
				<location type="link" id="104">
					<capacity value="4" />
					<opentime day="wk" start_time="00:00:00" end_time="24:00:00" />
				</location>
				<location type="link" id="110">
					<capacity value="3" />
					<opentime day="wk" start_time="00:00:00" end_time="24:00:00" />
				</location>
			</activity>

			<activity type="leisure">
				<location type="link" id="102">
					<opentime day="wk" start_time="00:00:00" end_time="24:00:00" />
				</location>
				<location type="link" id="105">
					<opentime day="wk" start_time="08:00:00" end_time="20:00:00" />
				</location>
			</activity>

			<activity type="shop">
				<location type="link" id="106">
					<capacity value="3000" />
					<opentime day="sat" start_time="09:00:00" end_time="17:00:00" />
					<opentime day="wkday" start_time="07:30:00" end_time="20:00:00" />
				</location>
				<location type="link" id="109">
					<capacity value="50" />
					<opentime day="sat" start_time="09:00:00" end_time="16:00:00" />
					<opentime day="wkday" start_time="09:00:00" end_time="18:30:00" />
				</location>
			</activity>

			<activity type="work">
				<location type="link" id="107">
					<capacity value="1" />
					<opentime day="wkday" start_time="07:00:00" end_time="20:00:00" />
				</location>
			</activity>

		</knowledge>

	</person>

</plans>
