<?xml version="1.0" encoding="UTF-8"?>

<vehicleDefinitions xmlns:xsi="http://www.w3.org/2001/XMLSchema-instance" xmlns="http://www.matsim.org/files/dtd" xsi:schemaLocation="http://www.matsim.org/files/dtd http://www.matsim.org/files/dtd/vehicleDefinitions_v2.0.xsd">

	<vehicleType id="trainType1">
		<attributes>
			<attribute name="railsimAcceleration" class="java.lang.Double">0.2</attribute>
			<attribute name="railsimMaxDeceleration" class="java.lang.Double">0.3</attribute>
		</attributes>
		<capacity seats="40" standingRoomInPersons="0">

		</capacity>
		<length meter="300"/>
		<width meter="1.0"/>
		<maximumVelocity meterPerSecond="44.444"/>
		<costInformation>

		</costInformation>
		<passengerCarEquivalents pce="1.0"/>
		<networkMode networkMode="rail"/>
		<flowEfficiencyFactor factor="1.0"/>
	</vehicleType>

	<vehicle id="train1" type="trainType1"/>

</vehicleDefinitions>
