<?xml version="1.0" encoding="utf-8"?>
<!DOCTYPE population SYSTEM "http://www.matsim.org/files/dtd/population_v5.dtd">

<population>

<person id="person_0" employed="no">
		<plan selected="yes">
			<act type="home" x="-500.0" y="9000.0" end_time="08:00:00" />
			<leg mode="taxi">
			</leg>
			<act type="work" x="10500.0" y="9000.0" end_time="16:00:01" />
			<leg mode="car">
			</leg>
			<act type="home" x="-500.0" y="9000.0"/>
		</plan>

	</person>

<!-- ====================================================================== -->

	<person id="person_1" employed="no">
		<plan selected="yes">
			<act type="home" x="-500.0" y="9000.0" end_time="08:00:01" />
			<leg mode="taxi">
			</leg>
			<act type="work" x="10500.0" y="9000.0" end_time="16:00:01" />
			<leg mode="car">
			</leg>
			<act type="home" x="-500.0" y="9000.0" />
		</plan>

	</person>

<!-- ====================================================================== -->

	<person id="person_2" employed="no">
		<plan selected="yes">
			<act type="home" x="-500.0" y="9000.0" end_time="08:00:02" />
			<leg mode="taxi">
			</leg>
			<act type="work" x="10500.0" y="9000.0" end_time="16:00:01" />
			<leg mode="car">
			</leg>
			<act type="home" x="-500.0" y="9000.0" />
		</plan>

	</person>
	
<!-- ====================================================================== -->

	<person id="person_3" employed="no">
		<plan selected="yes">
			<act type="home" x="-500.0" y="9000.0" end_time="08:00:03" />
			<leg mode="taxi">
			</leg>
			<act type="work" x="10500.0" y="9000.0" end_time="16:00:01" />
			<leg mode="car">
			</leg>
			<act type="home" x="-500.0" y="9000.0" />
		</plan>

	</person>
	
<!-- ====================================================================== -->

	<person id="person_4" employed="no">
		<plan selected="yes">
			<act type="home" x="-500.0" y="9000.0" end_time="08:00:04" />
			<leg mode="taxi">
			</leg>
			<act type="work" x="10500.0" y="9000.0" end_time="16:00:01" />
			<leg mode="car">
			</leg>
			<act type="home" x="-500.0" y="9000.0" />
		</plan>

	</person>
	
<!-- ====================================================================== -->

	<person id="person_5" employed="no">
		<plan selected="yes">
			<act type="home" x="-500.0" y="9000.0" end_time="08:00:05" />
			<leg mode="taxi">
			</leg>
			<act type="work" x="10500.0" y="9000.0" end_time="16:00:01" />
			<leg mode="car">
			</leg>
			<act type="home" x="-500.0" y="9000.0" />
		</plan>

	</person>
	
<!-- ====================================================================== -->

	<person id="person_6" employed="no">
		<plan selected="yes">
			<act type="home" x="-500.0" y="9000.0" end_time="08:00:06" />
			<leg mode="taxi">
			</leg>
			<act type="work" x="10500.0" y="9000.0" end_time="16:00:01" />
			<leg mode="car">
			</leg>
			<act type="home" x="-500.0" y="9000.0" />
		</plan>

	</person>
	
<!-- ====================================================================== -->

	<person id="person_7" employed="no">
		<plan selected="yes">
			<act type="home" x="-500.0" y="9000.0" end_time="08:00:07" />
			<leg mode="taxi">
			</leg>
			<act type="work" x="10500.0" y="9000.0" end_time="16:00:01" />
			<leg mode="car">
			</leg>
			<act type="home" x="-500.0" y="9000.0" />
		</plan>

	</person>
	
<!-- ====================================================================== -->

	<person id="person_8" employed="no">
		<plan selected="yes">
			<act type="home" x="-500.0" y="9000.0" end_time="08:00:08" />
			<leg mode="taxi">
			</leg>
			<act type="work" x="10500.0" y="9000.0" end_time="16:00:01" />
			<leg mode="car">
			</leg>
			<act type="home" x="-500.0" y="9000.0" />
		</plan>

	</person>
	
<!-- ====================================================================== -->

	<person id="person_9" employed="no">
		<plan selected="yes">
			<act type="home" x="-500.0" y="9000.0" end_time="08:00:09" />
			<leg mode="taxi">
			</leg>
			<act type="work" x="10500.0" y="9000.0" end_time="16:00:01" />
			<leg mode="car">
			</leg>
			<act type="home" x="-500.0" y="9000.0" />
		</plan>

	</person>
	
<!-- ====================================================================== -->

	<person id="person_10" employed="no">
		<plan selected="yes">
			<act type="home" x="-500.0" y="9000.0" end_time="08:00:10" />
			<leg mode="taxi">
			</leg>
			<act type="work" x="10500.0" y="9000.0" end_time="16:00:01" />
			<leg mode="car">
			</leg>
			<act type="home" x="-500.0" y="9000.0" />
		</plan>

	</person>

<!-- ====================================================================== -->

<!-- ====================================================================== -->

	<person id="personNoise_0" employed="no">
		<plan selected="yes">
			<act type="home" x="-1000.00" y="0.0" end_time="00:00:00" />
			<leg mode="car">
			</leg>
			<act type="noise_sensitive" x="9999.0" y="0.0" end_time="20:00:00" />
			<leg mode="car">
			</leg>
			<act type="home" x="-1000.00" y="0.0" />
		</plan>

	</person>


</population>
