<?xml version="1.0" encoding="utf-8"?>
<!DOCTYPE plans SYSTEM "http://www.matsim.org/files/dtd/plans_v4.dtd">

<plans>
<!-- ====================================================================== -->

	<person id="car_never_available" employed="no" car_avail="never">
	</person>

<!-- ====================================================================== -->

	<person id="car_default_availability" employed="no">
	</person>

<!-- ====================================================================== -->

	<person id="car_always_available" employed="no" car_avail="always">
	</person>

<!-- ====================================================================== -->
</plans>
