<?xml version="1.0" encoding="utf-8"?>
<!DOCTYPE facilities SYSTEM "http://www.matsim.org/files/dtd/facilities_v1.dtd">

<facilities name="berlin test facilities">

<!-- ====================================================================== -->

		<facility id="18" x="4592973.0" y="5822113.0" > <activity type="parking"> <capacity value="67" /> </activity> </facility>
		<facility id="90" x="4602236.0" y="5813236.0" > <activity type="parking"> <capacity value="67" /> </activity> </facility>
		<facility id="580" x="4595934.5" y="5823469.5" > <activity type="parking"> <capacity value="67" /> </activity> </facility>
		<facility id="882" x="4576340.0" y="5809670.0" > <activity type="parking"> <capacity value="67" /> </activity> </facility>
		<facility id="883" x="4577791.0" y="5807954.0" > <activity type="parking"> <capacity value="67" /> </activity> </facility>
		<facility id="885" x="4577812.0" y="5809360.0" > <activity type="parking"> <capacity value="67" /> </activity> </facility>
		<facility id="886" x="4577761.0" y="5809443.0" > <activity type="parking"> <capacity value="67" /> </activity> </facility>
		<facility id="887" x="4577945.0" y="5807762.0" > <activity type="parking"> <capacity value="67" /> </activity> </facility>
		<facility id="890" x="4577949.0" y="5809587.0" > <activity type="parking"> <capacity value="67" /> </activity> </facility>
		<facility id="891" x="4577589.0" y="5809934.0" > <activity type="parking"> <capacity value="67" /> </activity> </facility>
		<facility id="892" x="4577503.0" y="5813834.0" > <activity type="parking"> <capacity value="67" /> </activity> </facility>
		<facility id="893" x="4578204.0" y="5810074.0" > <activity type="parking"> <capacity value="67" /> </activity> </facility>
		<facility id="894" x="4578138.0" y="5809883.0" > <activity type="parking"> <capacity value="67" /> </activity> </facility>
		<facility id="895" x="4577864.0" y="5813976.0" > <activity type="parking"> <capacity value="67" /> </activity> </facility>
		<facility id="896" x="4577890.0" y="5814058.0" > <activity type="parking"> <capacity value="67" /> </activity> </facility>
		<facility id="898" x="4576658.0" y="5815566.0" > <activity type="parking"> <capacity value="67" /> </activity> </facility>
		<facility id="899" x="4576233.0" y="5816632.0" > <activity type="parking"> <capacity value="67" /> </activity> </facility>
		<facility id="900" x="4576621.0" y="5816746.0" > <activity type="parking"> <capacity value="67" /> </activity> </facility>
		<facility id="902" x="4577572.5" y="5822767.0" > <activity type="parking"> <capacity value="67" /> </activity> </facility>
		<facility id="903" x="4576180.0" y="5822355.0" > <activity type="parking"> <capacity value="67" /> </activity> </facility>
		<facility id="904" x="4577696.0" y="5822780.0" > <activity type="parking"> <capacity value="67" /> </activity> </facility>
		<facility id="905" x="4578148.0" y="5822817.0" > <activity type="parking"> <capacity value="67" /> </activity> </facility>
		<facility id="906" x="4578182.0" y="5824116.0" > <activity type="parking"> <capacity value="67" /> </activity> </facility>
		<facility id="907" x="4577365.5" y="5822328.5" > <activity type="parking"> <capacity value="67" /> </activity> </facility>
		<facility id="908" x="4577700.0" y="5824300.0" > <activity type="parking"> <capacity value="67" /> </activity> </facility>
		<facility id="910" x="4578343.0" y="5825106.0" > <activity type="parking"> <capacity value="67" /> </activity> </facility>
		<facility id="912" x="4579120.0" y="5810242.0" > <activity type="parking"> <capacity value="67" /> </activity> </facility>
		<facility id="915" x="4580048.0" y="5810277.0" > <activity type="parking"> <capacity value="67" /> </activity> </facility>
		<facility id="918" x="4580996.5" y="5810216.5" > <activity type="parking"> <capacity value="67" /> </activity> </facility>
		<facility id="920" x="4580354.0" y="5810496.0" > <activity type="parking"> <capacity value="67" /> </activity> </facility>
		<facility id="921" x="4580841.0" y="5810975.0" > <activity type="parking"> <capacity value="67" /> </activity> </facility>
		<facility id="924" x="4580994.5" y="5811835.5" > <activity type="parking"> <capacity value="67" /> </activity> </facility>
		<facility id="928" x="4581658.0" y="5811889.0" > <activity type="parking"> <capacity value="67" /> </activity> </facility>
		<facility id="929" x="4581565.5" y="5811994.0" > <activity type="parking"> <capacity value="67" /> </activity> </facility>
		<facility id="931" x="4581725.0" y="5812673.0" > <activity type="parking"> <capacity value="67" /> </activity> </facility>
		<facility id="932" x="4581021.5" y="5814149.5" > <activity type="parking"> <capacity value="67" /> </activity> </facility>
		<facility id="934" x="4581889.0" y="5810665.0" > <activity type="parking"> <capacity value="67" /> </activity> </facility>
		<facility id="937" x="4582530.0" y="5811884.0" > <activity type="parking"> <capacity value="67" /> </activity> </facility>
		<facility id="938" x="4582722.0" y="5811152.0" > <activity type="parking"> <capacity value="67" /> </activity> </facility>
		<facility id="939" x="4583365.0" y="5811410.0" > <activity type="parking"> <capacity value="67" /> </activity> </facility>
		<facility id="940" x="4582683.0" y="5812562.0" > <activity type="parking"> <capacity value="67" /> </activity> </facility>
		<facility id="942" x="4583721.0" y="5811058.0" > <activity type="parking"> <capacity value="67" /> </activity> </facility>
		<facility id="943" x="4583751.0" y="5811567.0" > <activity type="parking"> <capacity value="67" /> </activity> </facility>
		<facility id="945" x="4583738.0" y="5811210.0" > <activity type="parking"> <capacity value="67" /> </activity> </facility>
		<facility id="946" x="4583841.0" y="5812226.0" > <activity type="parking"> <capacity value="67" /> </activity> </facility>
		<facility id="947" x="4583909.0" y="5812325.0" > <activity type="parking"> <capacity value="67" /> </activity> </facility>
		<facility id="950" x="4584176.0" y="5812595.0" > <activity type="parking"> <capacity value="67" /> </activity> </facility>
		<facility id="951" x="4585084.0" y="5810292.0" > <activity type="parking"> <capacity value="67" /> </activity> </facility>
		<facility id="953" x="4584462.0" y="5810864.0" > <activity type="parking"> <capacity value="67" /> </activity> </facility>
		<facility id="954" x="4584489.0" y="5811855.0" > <activity type="parking"> <capacity value="67" /> </activity> </facility>
		<facility id="955" x="4584744.0" y="5812643.0" > <activity type="parking"> <capacity value="67" /> </activity> </facility>
		<facility id="956" x="4584431.0" y="5812895.0" > <activity type="parking"> <capacity value="67" /> </activity> </facility>
		<facility id="958" x="4584729.0" y="5813320.0" > <activity type="parking"> <capacity value="67" /> </activity> </facility>
		<facility id="959" x="4579132.0" y="5815301.0" > <activity type="parking"> <capacity value="67" /> </activity> </facility>
		<facility id="960" x="4579922.0" y="5816346.0" > <activity type="parking"> <capacity value="67" /> </activity> </facility>
		<facility id="962" x="4580455.0" y="5817331.0" > <activity type="parking"> <capacity value="67" /> </activity> </facility>
		<facility id="966" x="4581458.0" y="5816977.5" > <activity type="parking"> <capacity value="67" /> </activity> </facility>
		<facility id="969" x="4582256.0" y="5819336.0" > <activity type="parking"> <capacity value="67" /> </activity> </facility>
		<facility id="973" x="4584888.5" y="5815651.5" > <activity type="parking"> <capacity value="67" /> </activity> </facility>
		<facility id="974" x="4579059.0" y="5821399.0" > <activity type="parking"> <capacity value="67" /> </activity> </facility>
		<facility id="975" x="4578959.0" y="5821801.0" > <activity type="parking"> <capacity value="67" /> </activity> </facility>
		<facility id="977" x="4578903.0" y="5821996.5" > <activity type="parking"> <capacity value="67" /> </activity> </facility>
		<facility id="979" x="4578681.5" y="5822854.5" > <activity type="parking"> <capacity value="67" /> </activity> </facility>
		<facility id="981" x="4578595.5" y="5823166.5" > <activity type="parking"> <capacity value="67" /> </activity> </facility>
		<facility id="983" x="4578617.0" y="5823533.0" > <activity type="parking"> <capacity value="67" /> </activity> </facility>
		<facility id="985" x="4578660.0" y="5823970.0" > <activity type="parking"> <capacity value="67" /> </activity> </facility>
		<facility id="986" x="4579649.0" y="5820415.0" > <activity type="parking"> <capacity value="67" /> </activity> </facility>
		<facility id="987" x="4579478.0" y="5820201.0" > <activity type="parking"> <capacity value="67" /> </activity> </facility>
		<facility id="989" x="4579513.5" y="5821249.0" > <activity type="parking"> <capacity value="67" /> </activity> </facility>
		<facility id="991" x="4580013.5" y="5822007.0" > <activity type="parking"> <capacity value="67" /> </activity> </facility>
		<facility id="992" x="4579455.0" y="5822907.0" > <activity type="parking"> <capacity value="67" /> </activity> </facility>
		<facility id="993" x="4579799.0" y="5823657.0" > <activity type="parking"> <capacity value="67" /> </activity> </facility>
		<facility id="996" x="4580236.0" y="5820218.0" > <activity type="parking"> <capacity value="67" /> </activity> </facility>
		<facility id="998" x="4580147.0" y="5821047.0" > <activity type="parking"> <capacity value="67" /> </activity> </facility>
		<facility id="999" x="4580529.0" y="5820916.0" > <activity type="parking"> <capacity value="67" /> </activity> </facility>
		<facility id="1000" x="4580395.0" y="5821249.0" > <activity type="parking"> <capacity value="67" /> </activity> </facility>
		<facility id="1002" x="4580800.0" y="5821613.0" > <activity type="parking"> <capacity value="67" /> </activity> </facility>
		<facility id="1003" x="4580699.0" y="5821443.0" > <activity type="parking"> <capacity value="67" /> </activity> </facility>
		<facility id="1005" x="4580636.0" y="5821449.0" > <activity type="parking"> <capacity value="67" /> </activity> </facility>
		<facility id="1007" x="4580319.0" y="5822126.0" > <activity type="parking"> <capacity value="67" /> </activity> </facility>
		<facility id="1009" x="4580279.0" y="5822991.0" > <activity type="parking"> <capacity value="67" /> </activity> </facility>
		<facility id="1010" x="4580120.0" y="5822595.0" > <activity type="parking"> <capacity value="67" /> </activity> </facility>
		<facility id="1011" x="4580111.0" y="5822973.0" > <activity type="parking"> <capacity value="67" /> </activity> </facility>
		<facility id="1012" x="4580303.0" y="5823165.0" > <activity type="parking"> <capacity value="67" /> </activity> </facility>
		<facility id="1013" x="4580310.0" y="5823477.0" > <activity type="parking"> <capacity value="67" /> </activity> </facility>
		<facility id="1014" x="4580386.0" y="5823802.0" > <activity type="parking"> <capacity value="67" /> </activity> </facility>
		<facility id="1015" x="4580434.0" y="5824181.0" > <activity type="parking"> <capacity value="67" /> </activity> </facility>
		<facility id="1016" x="4581633.0" y="5820572.0" > <activity type="parking"> <capacity value="67" /> </activity> </facility>
		<facility id="1017" x="4581348.0" y="5820673.0" > <activity type="parking"> <capacity value="67" /> </activity> </facility>
		<facility id="1018" x="4580961.0" y="5820786.0" > <activity type="parking"> <capacity value="67" /> </activity> </facility>
		<facility id="1019" x="4581400.0" y="5821153.0" > <activity type="parking"> <capacity value="67" /> </activity> </facility>
		<facility id="1020" x="4581405.0" y="5821557.0" > <activity type="parking"> <capacity value="67" /> </activity> </facility>
		<facility id="1022" x="4581394.0" y="5821760.0" > <activity type="parking"> <capacity value="67" /> </activity> </facility>
		<facility id="1023" x="4581376.0" y="5821911.0" > <activity type="parking"> <capacity value="67" /> </activity> </facility>
		<facility id="1026" x="4581022.0" y="5822401.0" > <activity type="parking"> <capacity value="67" /> </activity> </facility>
		<facility id="1027" x="4581150.0" y="5822032.0" > <activity type="parking"> <capacity value="67" /> </activity> </facility>
		<facility id="1028" x="4581228.0" y="5822339.0" > <activity type="parking"> <capacity value="67" /> </activity> </facility>
		<facility id="1029" x="4581251.0" y="5822449.0" > <activity type="parking"> <capacity value="67" /> </activity> </facility>
		<facility id="1030" x="4581428.5" y="5822872.0" > <activity type="parking"> <capacity value="67" /> </activity> </facility>
		<facility id="1032" x="4581334.0" y="5822701.0" > <activity type="parking"> <capacity value="67" /> </activity> </facility>
		<facility id="1033" x="4581491.5" y="5823062.0" > <activity type="parking"> <capacity value="67" /> </activity> </facility>
		<facility id="1034" x="4581152.0" y="5822957.0" > <activity type="parking"> <capacity value="67" /> </activity> </facility>
		<facility id="1035" x="4581575.0" y="5823514.5" > <activity type="parking"> <capacity value="67" /> </activity> </facility>
		<facility id="1036" x="4581208.0" y="5823157.0" > <activity type="parking"> <capacity value="67" /> </activity> </facility>
		<facility id="1039" x="4580834.0" y="5823296.0" > <activity type="parking"> <capacity value="67" /> </activity> </facility>
		<facility id="1040" x="4581411.0" y="5823982.0" > <activity type="parking"> <capacity value="67" /> </activity> </facility>
		<facility id="1041" x="4581128.0" y="5824295.0" > <activity type="parking"> <capacity value="67" /> </activity> </facility>
		<facility id="1042" x="4581170.0" y="5824212.0" > <activity type="parking"> <capacity value="67" /> </activity> </facility>
		<facility id="1043" x="4582223.0" y="5820393.0" > <activity type="parking"> <capacity value="67" /> </activity> </facility>
		<facility id="1044" x="4581778.0" y="5821873.0" > <activity type="parking"> <capacity value="67" /> </activity> </facility>
		<facility id="1045" x="4582073.0" y="5822179.0" > <activity type="parking"> <capacity value="67" /> </activity> </facility>
		<facility id="1046" x="4582328.0" y="5822266.5" > <activity type="parking"> <capacity value="67" /> </activity> </facility>
		<facility id="1047" x="4582373.0" y="5822475.0" > <activity type="parking"> <capacity value="67" /> </activity> </facility>
		<facility id="1048" x="4581882.0" y="5821944.0" > <activity type="parking"> <capacity value="67" /> </activity> </facility>
		<facility id="1049" x="4582072.0" y="5822410.5" > <activity type="parking"> <capacity value="67" /> </activity> </facility>
		<facility id="1051" x="4581859.5" y="5822582.5" > <activity type="parking"> <capacity value="67" /> </activity> </facility>
		<facility id="1052" x="4581905.5" y="5822666.0" > <activity type="parking"> <capacity value="67" /> </activity> </facility>
		<facility id="1053" x="4582043.0" y="5822862.0" > <activity type="parking"> <capacity value="67" /> </activity> </facility>
		<facility id="1055" x="4581914.0" y="5823173.0" > <activity type="parking"> <capacity value="67" /> </activity> </facility>
		<facility id="1056" x="4581827.0" y="5823248.0" > <activity type="parking"> <capacity value="67" /> </activity> </facility>
		<facility id="1059" x="4581900.0" y="5823619.0" > <activity type="parking"> <capacity value="67" /> </activity> </facility>
		<facility id="1060" x="4581710.0" y="5823679.0" > <activity type="parking"> <capacity value="67" /> </activity> </facility>
		<facility id="1061" x="4581787.0" y="5823681.0" > <activity type="parking"> <capacity value="67" /> </activity> </facility>
		<facility id="1062" x="4582037.0" y="5823540.0" > <activity type="parking"> <capacity value="67" /> </activity> </facility>
		<facility id="1065" x="4581838.0" y="5824143.5" > <activity type="parking"> <capacity value="67" /> </activity> </facility>
		<facility id="1066" x="4581771.0" y="5823749.0" > <activity type="parking"> <capacity value="67" /> </activity> </facility>
		<facility id="1067" x="4581701.0" y="5823747.0" > <activity type="parking"> <capacity value="67" /> </activity> </facility>
		<facility id="1068" x="4581939.5" y="5823999.0" > <activity type="parking"> <capacity value="67" /> </activity> </facility>
		<facility id="1069" x="4582816.0" y="5820206.5" > <activity type="parking"> <capacity value="67" /> </activity> </facility>
		<facility id="1070" x="4583049.0" y="5820480.0" > <activity type="parking"> <capacity value="67" /> </activity> </facility>
		<facility id="1071" x="4583151.5" y="5820379.0" > <activity type="parking"> <capacity value="67" /> </activity> </facility>
		<facility id="1073" x="4582890.0" y="5820794.0" > <activity type="parking"> <capacity value="67" /> </activity> </facility>
		<facility id="1076" x="4582614.0" y="5822220.0" > <activity type="parking"> <capacity value="67" /> </activity> </facility>
		<facility id="1077" x="4583056.0" y="5822441.5" > <activity type="parking"> <capacity value="67" /> </activity> </facility>
		<facility id="1078" x="4582469.5" y="5822759.0" > <activity type="parking"> <capacity value="67" /> </activity> </facility>
		<facility id="1079" x="4582447.0" y="5823515.0" > <activity type="parking"> <capacity value="67" /> </activity> </facility>
		<facility id="1080" x="4582944.5" y="5823347.5" > <activity type="parking"> <capacity value="67" /> </activity> </facility>
		<facility id="1081" x="4583512.0" y="5820000.0" > <activity type="parking"> <capacity value="67" /> </activity> </facility>
		<facility id="1082" x="4583525.0" y="5819720.0" > <activity type="parking"> <capacity value="67" /> </activity> </facility>
		<facility id="1083" x="4583991.0" y="5820047.0" > <activity type="parking"> <capacity value="67" /> </activity> </facility>
		<facility id="1084" x="4583503.0" y="5820105.0" > <activity type="parking"> <capacity value="67" /> </activity> </facility>
		<facility id="1085" x="4583747.0" y="5822336.0" > <activity type="parking"> <capacity value="67" /> </activity> </facility>
		<facility id="1086" x="4583777.0" y="5822533.0" > <activity type="parking"> <capacity value="67" /> </activity> </facility>
		<facility id="1087" x="4583699.0" y="5823642.0" > <activity type="parking"> <capacity value="67" /> </activity> </facility>
		<facility id="1088" x="4583699.0" y="5823521.0" > <activity type="parking"> <capacity value="67" /> </activity> </facility>
		<facility id="1089" x="4583479.0" y="5823465.0" > <activity type="parking"> <capacity value="67" /> </activity> </facility>
		<facility id="1090" x="4583705.0" y="5823702.0" > <activity type="parking"> <capacity value="67" /> </activity> </facility>
		<facility id="1091" x="4584436.0" y="5820098.0" > <activity type="parking"> <capacity value="67" /> </activity> </facility>
		<facility id="1092" x="4584313.0" y="5820583.0" > <activity type="parking"> <capacity value="67" /> </activity> </facility>
		<facility id="1096" x="4584793.0" y="5821976.0" > <activity type="parking"> <capacity value="67" /> </activity> </facility>
		<facility id="1097" x="4584595.0" y="5822047.0" > <activity type="parking"> <capacity value="67" /> </activity> </facility>
		<facility id="1098" x="4584250.0" y="5822438.0" > <activity type="parking"> <capacity value="67" /> </activity> </facility>
		<facility id="1099" x="4584722.0" y="5822323.0" > <activity type="parking"> <capacity value="67" /> </activity> </facility>
		<facility id="1100" x="4584769.5" y="5823516.5" > <activity type="parking"> <capacity value="67" /> </activity> </facility>
		<facility id="1101" x="4584569.0" y="5823534.0" > <activity type="parking"> <capacity value="67" /> </activity> </facility>
		<facility id="1102" x="4584077.0" y="5823600.0" > <activity type="parking"> <capacity value="67" /> </activity> </facility>
		<facility id="1103" x="4584214.0" y="5824042.0" > <activity type="parking"> <capacity value="67" /> </activity> </facility>
		<facility id="1104" x="4583896.0" y="5823895.5" > <activity type="parking"> <capacity value="67" /> </activity> </facility>
		<facility id="1105" x="4584710.0" y="5824199.5" > <activity type="parking"> <capacity value="67" /> </activity> </facility>
		<facility id="1106" x="4584681.0" y="5824076.5" > <activity type="parking"> <capacity value="67" /> </activity> </facility>
		<facility id="1108" x="4579149.0" y="5824869.0" > <activity type="parking"> <capacity value="67" /> </activity> </facility>
		<facility id="1111" x="4580017.5" y="5824620.0" > <activity type="parking"> <capacity value="67" /> </activity> </facility>
		<facility id="1112" x="4580467.0" y="5824488.5" > <activity type="parking"> <capacity value="67" /> </activity> </facility>
		<facility id="1113" x="4580517.5" y="5824933.5" > <activity type="parking"> <capacity value="67" /> </activity> </facility>
		<facility id="1114" x="4580736.0" y="5825493.5" > <activity type="parking"> <capacity value="67" /> </activity> </facility>
		<facility id="1115" x="4579799.0" y="5825867.0" > <activity type="parking"> <capacity value="67" /> </activity> </facility>
		<facility id="1116" x="4581062.0" y="5824653.0" > <activity type="parking"> <capacity value="67" /> </activity> </facility>
		<facility id="1118" x="4581567.0" y="5824607.5" > <activity type="parking"> <capacity value="67" /> </activity> </facility>
		<facility id="1119" x="4581391.0" y="5825370.0" > <activity type="parking"> <capacity value="67" /> </activity> </facility>
		<facility id="1120" x="4581209.5" y="5825348.0" > <activity type="parking"> <capacity value="67" /> </activity> </facility>
		<facility id="1121" x="4581413.0" y="5825258.0" > <activity type="parking"> <capacity value="67" /> </activity> </facility>
		<facility id="1122" x="4581322.0" y="5825819.5" > <activity type="parking"> <capacity value="67" /> </activity> </facility>
		<facility id="1124" x="4581254.5" y="5826194.0" > <activity type="parking"> <capacity value="67" /> </activity> </facility>
		<facility id="1126" x="4582201.0" y="5824663.0" > <activity type="parking"> <capacity value="67" /> </activity> </facility>
		<facility id="1127" x="4582020.0" y="5825235.0" > <activity type="parking"> <capacity value="67" /> </activity> </facility>
		<facility id="1128" x="4582007.0" y="5825421.0" > <activity type="parking"> <capacity value="67" /> </activity> </facility>
		<facility id="1129" x="4582142.0" y="5824984.0" > <activity type="parking"> <capacity value="67" /> </activity> </facility>
		<facility id="1132" x="4582033.0" y="5825793.0" > <activity type="parking"> <capacity value="67" /> </activity> </facility>
		<facility id="1133" x="4582054.5" y="5826083.0" > <activity type="parking"> <capacity value="67" /> </activity> </facility>
		<facility id="1135" x="4582101.5" y="5826501.0" > <activity type="parking"> <capacity value="67" /> </activity> </facility>
		<facility id="1137" x="4582336.0" y="5827370.0" > <activity type="parking"> <capacity value="67" /> </activity> </facility>
		<facility id="1138" x="4583056.0" y="5827393.0" > <activity type="parking"> <capacity value="67" /> </activity> </facility>
		<facility id="1139" x="4583230.5" y="5827407.5" > <activity type="parking"> <capacity value="67" /> </activity> </facility>
		<facility id="1140" x="4583429.0" y="5827401.0" > <activity type="parking"> <capacity value="67" /> </activity> </facility>
		<facility id="1144" x="4583275.0" y="5828647.0" > <activity type="parking"> <capacity value="67" /> </activity> </facility>
		<facility id="1145" x="4583830.0" y="5828870.0" > <activity type="parking"> <capacity value="67" /> </activity> </facility>
		<facility id="1147" x="4584038.0" y="5824414.0" > <activity type="parking"> <capacity value="67" /> </activity> </facility>
		<facility id="1148" x="4584741.0" y="5824528.0" > <activity type="parking"> <capacity value="67" /> </activity> </facility>
		<facility id="1149" x="4584759.0" y="5824744.0" > <activity type="parking"> <capacity value="67" /> </activity> </facility>
		<facility id="1150" x="4582094.0" y="5830554.0" > <activity type="parking"> <capacity value="67" /> </activity> </facility>
		<facility id="1151" x="4582051.0" y="5830904.0" > <activity type="parking"> <capacity value="67" /> </activity> </facility>
		<facility id="1152" x="4582698.0" y="5829954.0" > <activity type="parking"> <capacity value="67" /> </activity> </facility>
		<facility id="1154" x="4582417.0" y="5831519.0" > <activity type="parking"> <capacity value="67" /> </activity> </facility>
		<facility id="1157" x="4582569.0" y="5831618.0" > <activity type="parking"> <capacity value="67" /> </activity> </facility>
		<facility id="1159" x="4582921.0" y="5832616.0" > <activity type="parking"> <capacity value="67" /> </activity> </facility>
		<facility id="1160" x="4583077.0" y="5829362.0" > <activity type="parking"> <capacity value="67" /> </activity> </facility>
		<facility id="1161" x="4583423.0" y="5831108.0" > <activity type="parking"> <capacity value="67" /> </activity> </facility>
		<facility id="1162" x="4583765.0" y="5831842.0" > <activity type="parking"> <capacity value="67" /> </activity> </facility>
		<facility id="1164" x="4583527.0" y="5831787.0" > <activity type="parking"> <capacity value="67" /> </activity> </facility>
		<facility id="1165" x="4583211.0" y="5833338.0" > <activity type="parking"> <capacity value="67" /> </activity> </facility>
		<facility id="1167" x="4584580.0" y="5830505.0" > <activity type="parking"> <capacity value="67" /> </activity> </facility>
		<facility id="1168" x="4584030.0" y="5830675.0" > <activity type="parking"> <capacity value="67" /> </activity> </facility>
		<facility id="1169" x="4584425.0" y="5832000.0" > <activity type="parking"> <capacity value="67" /> </activity> </facility>
		<facility id="1170" x="4584089.5" y="5832471.0" > <activity type="parking"> <capacity value="67" /> </activity> </facility>
		<facility id="1171" x="4585141.0" y="5823473.5" > <activity type="parking"> <capacity value="67" /> </activity> </facility>
		<facility id="1172" x="4584535.5" y="5832877.0" > <activity type="parking"> <capacity value="67" /> </activity> </facility>
		<facility id="1174" x="4585236.0" y="5809877.0" > <activity type="parking"> <capacity value="67" /> </activity> </facility>
		<facility id="1179" x="4586329.0" y="5809323.0" > <activity type="parking"> <capacity value="67" /> </activity> </facility>
		<facility id="1180" x="4586346.0" y="5809162.0" > <activity type="parking"> <capacity value="67" /> </activity> </facility>
		<facility id="1184" x="4586760.5" y="5809266.0" > <activity type="parking"> <capacity value="67" /> </activity> </facility>
		<facility id="1185" x="4590586.5" y="5809461.5" > <activity type="parking"> <capacity value="67" /> </activity> </facility>
		<facility id="1187" x="4578749.0" y="5826355.0" > <activity type="parking"> <capacity value="67" /> </activity> </facility>
		<facility id="1189" x="4589604.0" y="5810067.0" > <activity type="parking"> <capacity value="67" /> </activity> </facility>
		<facility id="1190" x="4578488.0" y="5825606.0" > <activity type="parking"> <capacity value="67" /> </activity> </facility>
		<facility id="1191" x="4590069.0" y="5809386.0" > <activity type="parking"> <capacity value="67" /> </activity> </facility>
		<facility id="1192" x="4589953.0" y="5809564.0" > <activity type="parking"> <capacity value="67" /> </activity> </facility>
		<facility id="1195" x="4591155.0" y="5810109.0" > <activity type="parking"> <capacity value="67" /> </activity> </facility>
		<facility id="1197" x="4585263.0" y="5810840.0" > <activity type="parking"> <capacity value="67" /> </activity> </facility>
		<facility id="1198" x="4585797.0" y="5811414.5" > <activity type="parking"> <capacity value="67" /> </activity> </facility>
		<facility id="1199" x="4585751.0" y="5811585.0" > <activity type="parking"> <capacity value="67" /> </activity> </facility>
		<facility id="1200" x="4585722.0" y="5811696.0" > <activity type="parking"> <capacity value="67" /> </activity> </facility>
		<facility id="1202" x="4585559.0" y="5811377.0" > <activity type="parking"> <capacity value="67" /> </activity> </facility>
		<facility id="1203" x="4585675.5" y="5812098.0" > <activity type="parking"> <capacity value="67" /> </activity> </facility>
		<facility id="1204" x="4585822.5" y="5812060.5" > <activity type="parking"> <capacity value="67" /> </activity> </facility>
		<facility id="1205" x="4585768.0" y="5811849.0" > <activity type="parking"> <capacity value="67" /> </activity> </facility>
		<facility id="1206" x="4585553.5" y="5812132.0" > <activity type="parking"> <capacity value="67" /> </activity> </facility>
		<facility id="1207" x="4585069.0" y="5812008.0" > <activity type="parking"> <capacity value="67" /> </activity> </facility>
		<facility id="1209" x="4585458.0" y="5812667.5" > <activity type="parking"> <capacity value="67" /> </activity> </facility>
		<facility id="1210" x="4585658.0" y="5813332.0" > <activity type="parking"> <capacity value="67" /> </activity> </facility>
		<facility id="1211" x="4585360.0" y="5813815.0" > <activity type="parking"> <capacity value="67" /> </activity> </facility>
		<facility id="1212" x="4585163.0" y="5813713.0" > <activity type="parking"> <capacity value="67" /> </activity> </facility>
		<facility id="1213" x="4585098.0" y="5814132.0" > <activity type="parking"> <capacity value="67" /> </activity> </facility>
		<facility id="1215" x="4586215.5" y="5810034.5" > <activity type="parking"> <capacity value="67" /> </activity> </facility>
		<facility id="1216" x="4586242.5" y="5811578.5" > <activity type="parking"> <capacity value="67" /> </activity> </facility>