<?xml version="1.0" encoding="utf-8"?>
<!DOCTYPE population SYSTEM "http://www.matsim.org/files/dtd/population_v5.dtd">

<population>

<!-- ====================================================================== -->

	<person id="reroute_0" employed="no">
		<plan selected="yes">
			<act type="h" x="-20000.0" y="0.0" end_time="06:00:00" />
			<leg mode="car">
			</leg>
			<act type="w" x="5000.0" y="0.0" end_time="17:00:00" />
			<leg mode="car">
			</leg>
			<act type="h" x="-20000.0" y="0.0" start_time="18:00:00" />
		</plan>

	</person>

<!-- ====================================================================== -->

	<person id="reroute_1" employed="no">
		<plan selected="yes">
			<act type="h" x="-20000.0" y="0.0" end_time="06:00:00" />
			<leg mode="car">
			</leg>
			<act type="w" x="5000.0" y="0.0" end_time="17:00:00" />
			<leg mode="car">
			</leg>
			<act type="h" x="-20000.0" y="0.0" start_time="18:00:00" />
		</plan>

	</person>

<!-- ====================================================================== -->

	<person id="reroute_10" employed="no">
		<plan selected="yes">
			<act type="h" x="-20000.0" y="0.0" end_time="06:00:00" />
			<leg mode="car">
			</leg>
			<act type="w" x="5000.0" y="0.0" end_time="17:00:00" />
			<leg mode="car">
			</leg>
			<act type="h" x="-20000.0" y="0.0" start_time="18:00:00" />
		</plan>

	</person>

<!-- ====================================================================== -->

	<person id="reroute_11" employed="no">
		<plan selected="yes">
			<act type="h" x="-20000.0" y="0.0" end_time="06:00:00" />
			<leg mode="car">
			</leg>
			<act type="w" x="5000.0" y="0.0" end_time="17:00:00" />
			<leg mode="car">
			</leg>
			<act type="h" x="-20000.0" y="0.0" start_time="18:00:00" />
		</plan>

	</person>

<!-- ====================================================================== -->

	<person id="reroute_12" employed="no">
		<plan selected="yes">
			<act type="h" x="-20000.0" y="0.0" end_time="06:00:00" />
			<leg mode="car">
			</leg>
			<act type="w" x="5000.0" y="0.0" end_time="17:00:00" />
			<leg mode="car">
			</leg>
			<act type="h" x="-20000.0" y="0.0" start_time="18:00:00" />
		</plan>

	</person>

<!-- ====================================================================== -->

	<person id="reroute_13" employed="no">
		<plan selected="yes">
			<act type="h" x="-20000.0" y="0.0" end_time="06:00:00" />
			<leg mode="car">
			</leg>
			<act type="w" x="5000.0" y="0.0" end_time="17:00:00" />
			<leg mode="car">
			</leg>
			<act type="h" x="-20000.0" y="0.0" start_time="18:00:00" />
		</plan>

	</person>

<!-- ====================================================================== -->

	<person id="reroute_14" employed="no">
		<plan selected="yes">
			<act type="h" x="-20000.0" y="0.0" end_time="06:00:00" />
			<leg mode="car">
			</leg>
			<act type="w" x="5000.0" y="0.0" end_time="17:00:00" />
			<leg mode="car">
			</leg>
			<act type="h" x="-20000.0" y="0.0" start_time="18:00:00" />
		</plan>

	</person>

<!-- ====================================================================== -->

	<person id="reroute_15" employed="no">
		<plan selected="yes">
			<act type="h" x="-20000.0" y="0.0" end_time="06:00:00" />
			<leg mode="car">
			</leg>
			<act type="w" x="5000.0" y="0.0" end_time="17:00:00" />
			<leg mode="car">
			</leg>
			<act type="h" x="-20000.0" y="0.0" start_time="18:00:00" />
		</plan>

	</person>

<!-- ====================================================================== -->

	<person id="reroute_16" employed="no">
		<plan selected="yes">
			<act type="h" x="-20000.0" y="0.0" end_time="06:00:00" />
			<leg mode="car">
			</leg>
			<act type="w" x="5000.0" y="0.0" end_time="17:00:00" />
			<leg mode="car">
			</leg>
			<act type="h" x="-20000.0" y="0.0" start_time="18:00:00" />
		</plan>

	</person>

<!-- ====================================================================== -->

	<person id="reroute_17" employed="no">
		<plan selected="yes">
			<act type="h" x="-20000.0" y="0.0" end_time="06:00:00" />
			<leg mode="car">
			</leg>
			<act type="w" x="5000.0" y="0.0" end_time="17:00:00" />
			<leg mode="car">
			</leg>
			<act type="h" x="-20000.0" y="0.0" start_time="18:00:00" />
		</plan>

	</person>

<!-- ====================================================================== -->

	<person id="reroute_18" employed="no">
		<plan selected="yes">
			<act type="h" x="-20000.0" y="0.0" end_time="06:00:00" />
			<leg mode="car">
			</leg>
			<act type="w" x="5000.0" y="0.0" end_time="17:00:00" />
			<leg mode="car">
			</leg>
			<act type="h" x="-20000.0" y="0.0" start_time="18:00:00" />
		</plan>

	</person>

<!-- ====================================================================== -->

	<person id="reroute_19" employed="no">
		<plan selected="yes">
			<act type="h" x="-20000.0" y="0.0" end_time="06:00:00" />
			<leg mode="car">
			</leg>
			<act type="w" x="5000.0" y="0.0" end_time="17:00:00" />
			<leg mode="car">
			</leg>
			<act type="h" x="-20000.0" y="0.0" start_time="18:00:00" />
		</plan>

	</person>

<!-- ====================================================================== -->

	<person id="reroute_2" employed="no">
		<plan selected="yes">
			<act type="h" x="-20000.0" y="0.0" end_time="06:00:00" />
			<leg mode="car">
			</leg>
			<act type="w" x="5000.0" y="0.0" end_time="17:00:00" />
			<leg mode="car">
			</leg>
			<act type="h" x="-20000.0" y="0.0" start_time="18:00:00" />
		</plan>

	</person>

<!-- ====================================================================== -->

	<person id="reroute_20" employed="no">
		<plan selected="yes">
			<act type="h" x="-20000.0" y="0.0" end_time="06:00:00" />
			<leg mode="car">
			</leg>
			<act type="w" x="5000.0" y="0.0" end_time="17:00:00" />
			<leg mode="car">
			</leg>
			<act type="h" x="-20000.0" y="0.0" start_time="18:00:00" />
		</plan>

	</person>

<!-- ====================================================================== -->

	<person id="reroute_21" employed="no">
		<plan selected="yes">
			<act type="h" x="-20000.0" y="0.0" end_time="06:00:00" />
			<leg mode="car">
			</leg>
			<act type="w" x="5000.0" y="0.0" end_time="17:00:00" />
			<leg mode="car">
			</leg>
			<act type="h" x="-20000.0" y="0.0" start_time="18:00:00" />
		</plan>

	</person>

<!-- ====================================================================== -->

	<person id="reroute_22" employed="no">
		<plan selected="yes">
			<act type="h" x="-20000.0" y="0.0" end_time="06:00:00" />
			<leg mode="car">
			</leg>
			<act type="w" x="5000.0" y="0.0" end_time="17:00:00" />
			<leg mode="car">
			</leg>
			<act type="h" x="-20000.0" y="0.0" start_time="18:00:00" />
		</plan>

	</person>

<!-- ====================================================================== -->

	<person id="reroute_23" employed="no">
		<plan selected="yes">
			<act type="h" x="-20000.0" y="0.0" end_time="06:00:00" />
			<leg mode="car">
			</leg>
			<act type="w" x="5000.0" y="0.0" end_time="17:00:00" />
			<leg mode="car">
			</leg>
			<act type="h" x="-20000.0" y="0.0" start_time="18:00:00" />
		</plan>

	</person>

<!-- ====================================================================== -->

	<person id="reroute_24" employed="no">
		<plan selected="yes">
			<act type="h" x="-20000.0" y="0.0" end_time="06:00:00" />
			<leg mode="car">
			</leg>
			<act type="w" x="5000.0" y="0.0" end_time="17:00:00" />
			<leg mode="car">
			</leg>
			<act type="h" x="-20000.0" y="0.0" start_time="18:00:00" />
		</plan>

	</person>

<!-- ====================================================================== -->

	<person id="reroute_25" employed="no">
		<plan selected="yes">
			<act type="h" x="-20000.0" y="0.0" end_time="06:00:00" />
			<leg mode="car">
			</leg>
			<act type="w" x="5000.0" y="0.0" end_time="17:00:00" />
			<leg mode="car">
			</leg>
			<act type="h" x="-20000.0" y="0.0" start_time="18:00:00" />
		</plan>

	</person>

<!-- ====================================================================== -->

	<person id="reroute_26" employed="no">
		<plan selected="yes">
			<act type="h" x="-20000.0" y="0.0" end_time="06:00:00" />
			<leg mode="car">
			</leg>
			<act type="w" x="5000.0" y="0.0" end_time="17:00:00" />
			<leg mode="car">
			</leg>
			<act type="h" x="-20000.0" y="0.0" start_time="18:00:00" />
		</plan>

	</person>

<!-- ====================================================================== -->

	<person id="reroute_27" employed="no">
		<plan selected="yes">
			<act type="h" x="-20000.0" y="0.0" end_time="06:00:00" />
			<leg mode="car">
			</leg>
			<act type="w" x="5000.0" y="0.0" end_time="17:00:00" />
			<leg mode="car">
			</leg>
			<act type="h" x="-20000.0" y="0.0" start_time="18:00:00" />
		</plan>

	</person>

<!-- ====================================================================== -->

	<person id="reroute_28" employed="no">
		<plan selected="yes">
			<act type="h" x="-20000.0" y="0.0" end_time="06:00:00" />
			<leg mode="car">
			</leg>
			<act type="w" x="5000.0" y="0.0" end_time="17:00:00" />
			<leg mode="car">
			</leg>
			<act type="h" x="-20000.0" y="0.0" start_time="18:00:00" />
		</plan>

	</person>

<!-- ====================================================================== -->

	<person id="reroute_29" employed="no">
		<plan selected="yes">
			<act type="h" x="-20000.0" y="0.0" end_time="06:00:00" />
			<leg mode="car">
			</leg>
			<act type="w" x="5000.0" y="0.0" end_time="17:00:00" />
			<leg mode="car">
			</leg>
			<act type="h" x="-20000.0" y="0.0" start_time="18:00:00" />
		</plan>

	</person>

<!-- ====================================================================== -->

	<person id="reroute_3" employed="no">
		<plan selected="yes">
			<act type="h" x="-20000.0" y="0.0" end_time="06:00:00" />
			<leg mode="car">
			</leg>
			<act type="w" x="5000.0" y="0.0" end_time="17:00:00" />
			<leg mode="car">
			</leg>
			<act type="h" x="-20000.0" y="0.0" start_time="18:00:00" />
		</plan>

	</person>

<!-- ====================================================================== -->

	<person id="reroute_30" employed="no">
		<plan selected="yes">
			<act type="h" x="-20000.0" y="0.0" end_time="06:00:00" />
			<leg mode="car">
			</leg>
			<act type="w" x="5000.0" y="0.0" end_time="17:00:00" />
			<leg mode="car">
			</leg>
			<act type="h" x="-20000.0" y="0.0" start_time="18:00:00" />
		</plan>

	</person>

<!-- ====================================================================== -->

	<person id="reroute_31" employed="no">
		<plan selected="yes">
			<act type="h" x="-20000.0" y="0.0" end_time="06:00:00" />
			<leg mode="car">
			</leg>
			<act type="w" x="5000.0" y="0.0" end_time="17:00:00" />
			<leg mode="car">
			</leg>
			<act type="h" x="-20000.0" y="0.0" start_time="18:00:00" />
		</plan>

	</person>

<!-- ====================================================================== -->

	<person id="reroute_32" employed="no">
		<plan selected="yes">
			<act type="h" x="-20000.0" y="0.0" end_time="06:00:00" />
			<leg mode="car">
			</leg>
			<act type="w" x="5000.0" y="0.0" end_time="17:00:00" />
			<leg mode="car">
			</leg>
			<act type="h" x="-20000.0" y="0.0" start_time="18:00:00" />
		</plan>

	</person>

<!-- ====================================================================== -->

	<person id="reroute_33" employed="no">
		<plan selected="yes">
			<act type="h" x="-20000.0" y="0.0" end_time="06:00:00" />
			<leg mode="car">
			</leg>
			<act type="w" x="5000.0" y="0.0" end_time="17:00:00" />
			<leg mode="car">
			</leg>
			<act type="h" x="-20000.0" y="0.0" start_time="18:00:00" />
		</plan>

	</person>

<!-- ====================================================================== -->

	<person id="reroute_34" employed="no">
		<plan selected="yes">
			<act type="h" x="-20000.0" y="0.0" end_time="06:00:00" />
			<leg mode="car">
			</leg>
			<act type="w" x="5000.0" y="0.0" end_time="17:00:00" />
			<leg mode="car">
			</leg>
			<act type="h" x="-20000.0" y="0.0" start_time="18:00:00" />
		</plan>

	</person>

<!-- ====================================================================== -->

	<person id="reroute_35" employed="no">
		<plan selected="yes">
			<act type="h" x="-20000.0" y="0.0" end_time="06:00:00" />
			<leg mode="car">
			</leg>
			<act type="w" x="5000.0" y="0.0" end_time="17:00:00" />
			<leg mode="car">
			</leg>
			<act type="h" x="-20000.0" y="0.0" start_time="18:00:00" />
		</plan>

	</person>

<!-- ====================================================================== -->

	<person id="reroute_36" employed="no">
		<plan selected="yes">
			<act type="h" x="-20000.0" y="0.0" end_time="06:00:00" />
			<leg mode="car">
			</leg>
			<act type="w" x="5000.0" y="0.0" end_time="17:00:00" />
			<leg mode="car">
			</leg>
			<act type="h" x="-20000.0" y="0.0" start_time="18:00:00" />
		</plan>

	</person>

<!-- ====================================================================== -->

	<person id="reroute_37" employed="no">
		<plan selected="yes">
			<act type="h" x="-20000.0" y="0.0" end_time="06:00:00" />
			<leg mode="car">
			</leg>
			<act type="w" x="5000.0" y="0.0" end_time="17:00:00" />
			<leg mode="car">
			</leg>
			<act type="h" x="-20000.0" y="0.0" start_time="18:00:00" />
		</plan>

	</person>

<!-- ====================================================================== -->

	<person id="reroute_38" employed="no">
		<plan selected="yes">
			<act type="h" x="-20000.0" y="0.0" end_time="06:00:00" />
			<leg mode="car">
			</leg>
			<act type="w" x="5000.0" y="0.0" end_time="17:00:00" />
			<leg mode="car">
			</leg>
			<act type="h" x="-20000.0" y="0.0" start_time="18:00:00" />
		</plan>

	</person>

<!-- ====================================================================== -->

	<person id="reroute_39" employed="no">
		<plan selected="yes">
			<act type="h" x="-20000.0" y="0.0" end_time="06:00:00" />
			<leg mode="car">
			</leg>
			<act type="w" x="5000.0" y="0.0" end_time="17:00:00" />
			<leg mode="car">
			</leg>
			<act type="h" x="-20000.0" y="0.0" start_time="18:00:00" />
		</plan>

	</person>

<!-- ====================================================================== -->

	<person id="reroute_4" employed="no">
		<plan selected="yes">
			<act type="h" x="-20000.0" y="0.0" end_time="06:00:00" />
			<leg mode="car">
			</leg>
			<act type="w" x="5000.0" y="0.0" end_time="17:00:00" />
			<leg mode="car">
			</leg>
			<act type="h" x="-20000.0" y="0.0" start_time="18:00:00" />
		</plan>

	</person>

<!-- ====================================================================== -->

	<person id="reroute_40" employed="no">
		<plan selected="yes">
			<act type="h" x="-20000.0" y="0.0" end_time="06:00:00" />
			<leg mode="car">
			</leg>
			<act type="w" x="5000.0" y="0.0" end_time="17:00:00" />
			<leg mode="car">
			</leg>
			<act type="h" x="-20000.0" y="0.0" start_time="18:00:00" />
		</plan>

	</person>

<!-- ====================================================================== -->

	<person id="reroute_41" employed="no">
		<plan selected="yes">
			<act type="h" x="-20000.0" y="0.0" end_time="06:00:00" />
			<leg mode="car">
			</leg>
			<act type="w" x="5000.0" y="0.0" end_time="17:00:00" />
			<leg mode="car">
			</leg>
			<act type="h" x="-20000.0" y="0.0" start_time="18:00:00" />
		</plan>

	</person>

<!-- ====================================================================== -->

	<person id="reroute_42" employed="no">
		<plan selected="yes">
			<act type="h" x="-20000.0" y="0.0" end_time="06:00:00" />
			<leg mode="car">
			</leg>
			<act type="w" x="5000.0" y="0.0" end_time="17:00:00" />
			<leg mode="car">
			</leg>
			<act type="h" x="-20000.0" y="0.0" start_time="18:00:00" />
		</plan>

	</person>

<!-- ====================================================================== -->

	<person id="reroute_43" employed="no">
		<plan selected="yes">
			<act type="h" x="-20000.0" y="0.0" end_time="06:00:00" />
			<leg mode="car">
			</leg>
			<act type="w" x="5000.0" y="0.0" end_time="17:00:00" />
			<leg mode="car">
			</leg>
			<act type="h" x="-20000.0" y="0.0" start_time="18:00:00" />
		</plan>

	</person>

<!-- ====================================================================== -->

	<person id="reroute_44" employed="no">
		<plan selected="yes">
			<act type="h" x="-20000.0" y="0.0" end_time="06:00:00" />
			<leg mode="car">
			</leg>
			<act type="w" x="5000.0" y="0.0" end_time="17:00:00" />
			<leg mode="car">
			</leg>
			<act type="h" x="-20000.0" y="0.0" start_time="18:00:00" />
		</plan>

	</person>

<!-- ====================================================================== -->

	<person id="reroute_45" employed="no">
		<plan selected="yes">
			<act type="h" x="-20000.0" y="0.0" end_time="06:00:00" />
			<leg mode="car">
			</leg>
			<act type="w" x="5000.0" y="0.0" end_time="17:00:00" />
			<leg mode="car">
			</leg>
			<act type="h" x="-20000.0" y="0.0" start_time="18:00:00" />
		</plan>

	</person>

<!-- ====================================================================== -->

	<person id="reroute_46" employed="no">
		<plan selected="yes">
			<act type="h" x="-20000.0" y="0.0" end_time="06:00:00" />
			<leg mode="car">
			</leg>
			<act type="w" x="5000.0" y="0.0" end_time="17:00:00" />
			<leg mode="car">
			</leg>
			<act type="h" x="-20000.0" y="0.0" start_time="18:00:00" />
		</plan>

	</person>

<!-- ====================================================================== -->

	<person id="reroute_47" employed="no">
		<plan selected="yes">
			<act type="h" x="-20000.0" y="0.0" end_time="06:00:00" />
			<leg mode="car">
			</leg>
			<act type="w" x="5000.0" y="0.0" end_time="17:00:00" />
			<leg mode="car">
			</leg>
			<act type="h" x="-20000.0" y="0.0" start_time="18:00:00" />
		</plan>

	</person>

<!-- ====================================================================== -->

	<person id="reroute_48" employed="no">
		<plan selected="yes">
			<act type="h" x="-20000.0" y="0.0" end_time="06:00:00" />
			<leg mode="car">
			</leg>
			<act type="w" x="5000.0" y="0.0" end_time="17:00:00" />
			<leg mode="car">
			</leg>
			<act type="h" x="-20000.0" y="0.0" start_time="18:00:00" />
		</plan>

	</person>

<!-- ====================================================================== -->

	<person id="reroute_49" employed="no">
		<plan selected="yes">
			<act type="h" x="-20000.0" y="0.0" end_time="06:00:00" />
			<leg mode="car">
			</leg>
			<act type="w" x="5000.0" y="0.0" end_time="17:00:00" />
			<leg mode="car">
			</leg>
			<act type="h" x="-20000.0" y="0.0" start_time="18:00:00" />
		</plan>

	</person>

<!-- ====================================================================== -->

	<person id="reroute_5" employed="no">
		<plan selected="yes">
			<act type="h" x="-20000.0" y="0.0" end_time="06:00:00" />
			<leg mode="car">
			</leg>
			<act type="w" x="5000.0" y="0.0" end_time="17:00:00" />
			<leg mode="car">
			</leg>
			<act type="h" x="-20000.0" y="0.0" start_time="18:00:00" />
		</plan>

	</person>

<!-- ====================================================================== -->

	<person id="reroute_50" employed="no">
		<plan selected="yes">
			<act type="h" x="-20000.0" y="0.0" end_time="06:00:00" />
			<leg mode="car">
			</leg>
			<act type="w" x="5000.0" y="0.0" end_time="17:00:00" />
			<leg mode="car">
			</leg>
			<act type="h" x="-20000.0" y="0.0" start_time="18:00:00" />
		</plan>

	</person>

<!-- ====================================================================== -->

	<person id="reroute_51" employed="no">
		<plan selected="yes">
			<act type="h" x="-20000.0" y="0.0" end_time="06:00:00" />
			<leg mode="car">
			</leg>
			<act type="w" x="5000.0" y="0.0" end_time="17:00:00" />
			<leg mode="car">
			</leg>
			<act type="h" x="-20000.0" y="0.0" start_time="18:00:00" />
		</plan>

	</person>

<!-- ====================================================================== -->

	<person id="reroute_52" employed="no">
		<plan selected="yes">
			<act type="h" x="-20000.0" y="0.0" end_time="06:00:00" />
			<leg mode="car">
			</leg>
			<act type="w" x="5000.0" y="0.0" end_time="17:00:00" />
			<leg mode="car">
			</leg>
			<act type="h" x="-20000.0" y="0.0" start_time="18:00:00" />
		</plan>

	</person>

<!-- ====================================================================== -->

	<person id="reroute_53" employed="no">
		<plan selected="yes">
			<act type="h" x="-20000.0" y="0.0" end_time="06:00:00" />
			<leg mode="car">
			</leg>
			<act type="w" x="5000.0" y="0.0" end_time="17:00:00" />
			<leg mode="car">
			</leg>
			<act type="h" x="-20000.0" y="0.0" start_time="18:00:00" />
		</plan>

	</person>

<!-- ====================================================================== -->

	<person id="reroute_54" employed="no">
		<plan selected="yes">
			<act type="h" x="-20000.0" y="0.0" end_time="06:00:00" />
			<leg mode="car">
			</leg>
			<act type="w" x="5000.0" y="0.0" end_time="17:00:00" />
			<leg mode="car">
			</leg>
			<act type="h" x="-20000.0" y="0.0" start_time="18:00:00" />
		</plan>

	</person>

<!-- ====================================================================== -->

	<person id="reroute_55" employed="no">
		<plan selected="yes">
			<act type="h" x="-20000.0" y="0.0" end_time="06:00:00" />
			<leg mode="car">
			</leg>
			<act type="w" x="5000.0" y="0.0" end_time="17:00:00" />
			<leg mode="car">
			</leg>
			<act type="h" x="-20000.0" y="0.0" start_time="18:00:00" />
		</plan>

	</person>

<!-- ====================================================================== -->

	<person id="reroute_56" employed="no">
		<plan selected="yes">
			<act type="h" x="-20000.0" y="0.0" end_time="06:00:00" />
			<leg mode="car">
			</leg>
			<act type="w" x="5000.0" y="0.0" end_time="17:00:00" />
			<leg mode="car">
			</leg>
			<act type="h" x="-20000.0" y="0.0" start_time="18:00:00" />
		</plan>

	</person>

<!-- ====================================================================== -->

	<person id="reroute_57" employed="no">
		<plan selected="yes">
			<act type="h" x="-20000.0" y="0.0" end_time="06:00:00" />
			<leg mode="car">
			</leg>
			<act type="w" x="5000.0" y="0.0" end_time="17:00:00" />
			<leg mode="car">
			</leg>
			<act type="h" x="-20000.0" y="0.0" start_time="18:00:00" />
		</plan>

	</person>

<!-- ====================================================================== -->

	<person id="reroute_58" employed="no">
		<plan selected="yes">
			<act type="h" x="-20000.0" y="0.0" end_time="06:00:00" />
			<leg mode="car">
			</leg>
			<act type="w" x="5000.0" y="0.0" end_time="17:00:00" />
			<leg mode="car">
			</leg>
			<act type="h" x="-20000.0" y="0.0" start_time="18:00:00" />
		</plan>

	</person>

<!-- ====================================================================== -->

	<person id="reroute_59" employed="no">
		<plan selected="yes">
			<act type="h" x="-20000.0" y="0.0" end_time="06:00:00" />
			<leg mode="car">
			</leg>
			<act type="w" x="5000.0" y="0.0" end_time="17:00:00" />
			<leg mode="car">
			</leg>
			<act type="h" x="-20000.0" y="0.0" start_time="18:00:00" />
		</plan>

	</person>

<!-- ====================================================================== -->

	<person id="reroute_6" employed="no">
		<plan selected="yes">
			<act type="h" x="-20000.0" y="0.0" end_time="06:00:00" />
			<leg mode="car">
			</leg>
			<act type="w" x="5000.0" y="0.0" end_time="17:00:00" />
			<leg mode="car">
			</leg>
			<act type="h" x="-20000.0" y="0.0" start_time="18:00:00" />
		</plan>

	</person>

<!-- ====================================================================== -->

	<person id="reroute_60" employed="no">
		<plan selected="yes">
			<act type="h" x="-20000.0" y="0.0" end_time="06:00:00" />
			<leg mode="car">
			</leg>
			<act type="w" x="5000.0" y="0.0" end_time="17:00:00" />
			<leg mode="car">
			</leg>
			<act type="h" x="-20000.0" y="0.0" start_time="18:00:00" />
		</plan>

	</person>

<!-- ====================================================================== -->

	<person id="reroute_61" employed="no">
		<plan selected="yes">
			<act type="h" x="-20000.0" y="0.0" end_time="06:00:00" />
			<leg mode="car">
			</leg>
			<act type="w" x="5000.0" y="0.0" end_time="17:00:00" />
			<leg mode="car">
			</leg>
			<act type="h" x="-20000.0" y="0.0" start_time="18:00:00" />
		</plan>

	</person>

<!-- ====================================================================== -->

	<person id="reroute_62" employed="no">
		<plan selected="yes">
			<act type="h" x="-20000.0" y="0.0" end_time="06:00:00" />
			<leg mode="car">
			</leg>
			<act type="w" x="5000.0" y="0.0" end_time="17:00:00" />
			<leg mode="car">
			</leg>
			<act type="h" x="-20000.0" y="0.0" start_time="18:00:00" />
		</plan>

	</person>

<!-- ====================================================================== -->

	<person id="reroute_63" employed="no">
		<plan selected="yes">
			<act type="h" x="-20000.0" y="0.0" end_time="06:00:00" />
			<leg mode="car">
			</leg>
			<act type="w" x="5000.0" y="0.0" end_time="17:00:00" />
			<leg mode="car">
			</leg>
			<act type="h" x="-20000.0" y="0.0" start_time="18:00:00" />
		</plan>

	</person>

<!-- ====================================================================== -->

	<person id="reroute_64" employed="no">
		<plan selected="yes">
			<act type="h" x="-20000.0" y="0.0" end_time="06:00:00" />
			<leg mode="car">
			</leg>
			<act type="w" x="5000.0" y="0.0" end_time="17:00:00" />
			<leg mode="car">
			</leg>
			<act type="h" x="-20000.0" y="0.0" start_time="18:00:00" />
		</plan>

	</person>

<!-- ====================================================================== -->

	<person id="reroute_65" employed="no">
		<plan selected="yes">
			<act type="h" x="-20000.0" y="0.0" end_time="06:00:00" />
			<leg mode="car">
			</leg>
			<act type="w" x="5000.0" y="0.0" end_time="17:00:00" />
			<leg mode="car">
			</leg>
			<act type="h" x="-20000.0" y="0.0" start_time="18:00:00" />
		</plan>

	</person>

<!-- ====================================================================== -->

	<person id="reroute_66" employed="no">
		<plan selected="yes">
			<act type="h" x="-20000.0" y="0.0" end_time="06:00:00" />
			<leg mode="car">
			</leg>
			<act type="w" x="5000.0" y="0.0" end_time="17:00:00" />
			<leg mode="car">
			</leg>
			<act type="h" x="-20000.0" y="0.0" start_time="18:00:00" />
		</plan>

	</person>

<!-- ====================================================================== -->

	<person id="reroute_67" employed="no">
		<plan selected="yes">
			<act type="h" x="-20000.0" y="0.0" end_time="06:00:00" />
			<leg mode="car">
			</leg>
			<act type="w" x="5000.0" y="0.0" end_time="17:00:00" />
			<leg mode="car">
			</leg>
			<act type="h" x="-20000.0" y="0.0" start_time="18:00:00" />
		</plan>

	</person>

<!-- ====================================================================== -->

	<person id="reroute_68" employed="no">
		<plan selected="yes">
			<act type="h" x="-20000.0" y="0.0" end_time="06:00:00" />
			<leg mode="car">
			</leg>
			<act type="w" x="5000.0" y="0.0" end_time="17:00:00" />
			<leg mode="car">
			</leg>
			<act type="h" x="-20000.0" y="0.0" start_time="18:00:00" />
		</plan>

	</person>

<!-- ====================================================================== -->

	<person id="reroute_69" employed="no">
		<plan selected="yes">
			<act type="h" x="-20000.0" y="0.0" end_time="06:00:00" />
			<leg mode="car">
			</leg>
			<act type="w" x="5000.0" y="0.0" end_time="17:00:00" />
			<leg mode="car">
			</leg>
			<act type="h" x="-20000.0" y="0.0" start_time="18:00:00" />
		</plan>

	</person>

<!-- ====================================================================== -->

	<person id="reroute_7" employed="no">
		<plan selected="yes">
			<act type="h" x="-20000.0" y="0.0" end_time="06:00:00" />
			<leg mode="car">
			</leg>
			<act type="w" x="5000.0" y="0.0" end_time="17:00:00" />
			<leg mode="car">
			</leg>
			<act type="h" x="-20000.0" y="0.0" start_time="18:00:00" />
		</plan>

	</person>

<!-- ====================================================================== -->

	<person id="reroute_70" employed="no">
		<plan selected="yes">
			<act type="h" x="-20000.0" y="0.0" end_time="06:00:00" />
			<leg mode="car">
			</leg>
			<act type="w" x="5000.0" y="0.0" end_time="17:00:00" />
			<leg mode="car">
			</leg>
			<act type="h" x="-20000.0" y="0.0" start_time="18:00:00" />
		</plan>

	</person>

<!-- ====================================================================== -->

	<person id="reroute_71" employed="no">
		<plan selected="yes">
			<act type="h" x="-20000.0" y="0.0" end_time="06:00:00" />
			<leg mode="car">
			</leg>
			<act type="w" x="5000.0" y="0.0" end_time="17:00:00" />
			<leg mode="car">
			</leg>
			<act type="h" x="-20000.0" y="0.0" start_time="18:00:00" />
		</plan>

	</person>

<!-- ====================================================================== -->

	<person id="reroute_72" employed="no">
		<plan selected="yes">
			<act type="h" x="-20000.0" y="0.0" end_time="06:00:00" />
			<leg mode="car">
			</leg>
			<act type="w" x="5000.0" y="0.0" end_time="17:00:00" />
			<leg mode="car">
			</leg>
			<act type="h" x="-20000.0" y="0.0" start_time="18:00:00" />
		</plan>

	</person>

<!-- ====================================================================== -->

	<person id="reroute_73" employed="no">
		<plan selected="yes">
			<act type="h" x="-20000.0" y="0.0" end_time="06:00:00" />
			<leg mode="car">
			</leg>
			<act type="w" x="5000.0" y="0.0" end_time="17:00:00" />
			<leg mode="car">
			</leg>
			<act type="h" x="-20000.0" y="0.0" start_time="18:00:00" />
		</plan>

	</person>

<!-- ====================================================================== -->

	<person id="reroute_74" employed="no">
		<plan selected="yes">
			<act type="h" x="-20000.0" y="0.0" end_time="06:00:00" />
			<leg mode="car">
			</leg>