<?xml version="1.0" encoding="utf-8"?>
<!DOCTYPE network SYSTEM "http://www.matsim.org/files/dtd/network_v1.dtd">

<network name="test network">
   <nodes>
      <node id="1" x="0" y="0" />
      <node id="2" x="2500" y="0" />
      <node id="3" x="5000" y="0" />
      <node id="4" x="5000" y="2500" />
      <node id="5" x="5000" y="5000" />
      <node id="6" x="2500" y="5000" />
      <node id="7" x="0" y="5000" />
      <node id="8" x="0" y="2500" />
   </nodes>
   <links capperiod="01:00:00">
      <link id="1" from="1" to="2" length="7500" capacity="2400" freespeed="13.9" permlanes="1" oneway="1" modes="car" />
      <link id="1r" from="2" to="1" length="7500" capacity="2400" freespeed="13.9" permlanes="1" oneway="1" modes="car" />
      <link id="2" from="2" to="3" length="7500" capacity="2400" freespeed="13.9" permlanes="1" oneway="1" modes="car" />
      <link id="2r" from="3" to="2" length="7500" capacity="2400" freespeed="13.9" permlanes="1" oneway="1" modes="car" />
      <link id="3" from="3" to="4" length="7500" capacity="2400" freespeed="13.9" permlanes="1" oneway="1" modes="car" />
      <link id="3r" from="4" to="3" length="7500" capacity="2400" freespeed="13.9" permlanes="1" oneway="1" modes="car" />
      <link id="4" from="4" to="5" length="7500" capacity="2400" freespeed="13.9" permlanes="1" oneway="1" modes="car" />
      <link id="4r" from="5" to="4" length="7500" capacity="2400" freespeed="13.9" permlanes="1" oneway="1" modes="car" />
      <link id="5" from="5" to="6" length="7500" capacity="2400" freespeed="13.9" permlanes="1" oneway="1" modes="car" />
      <link id="5r" from="6" to="5" length="7500" capacity="2400" freespeed="13.9" permlanes="1" oneway="1" modes="car" />
      <link id="6" from="6" to="7" length="7500" capacity="2400" freespeed="13.9" permlanes="1" oneway="1" modes="car" />
      <link id="6r" from="7" to="6" length="7500" capacity="2400" freespeed="13.9" permlanes="1" oneway="1" modes="car" />
      <link id="7" from="7" to="8" length="7500" capacity="2400" freespeed="13.9" permlanes="1" oneway="1" modes="car" />
      <link id="7r" from="8" to="7" length="7500" capacity="2400" freespeed="13.9" permlanes="1" oneway="1" modes="car" />
      <link id="8" from="8" to="1" length="7500" capacity="2400" freespeed="13.9" permlanes="1" oneway="1" modes="car" />
      <link id="8r" from="1" to="8" length="7500" capacity="2400" freespeed="13.9" permlanes="1" oneway="1" modes="car" />
      
      <link id="x1" from="1" to="5" length="21213" capacity="2400" freespeed="13.9" permlanes="1" oneway="1" modes="car" />
      <link id="x1r" from="5" to="1" length="21213" capacity="2400" freespeed="13.9" permlanes="1" oneway="1" modes="car" />
      <link id="x2" from="3" to="7" length="21213" capacity="2400" freespeed="13.9" permlanes="1" oneway="1" modes="car" />
      <link id="x2r" from="7" to="3" length="21213" capacity="2400" freespeed="13.9" permlanes="1" oneway="1" modes="car" />
   </links>
</network>
