// -*- C++ -*-

FoamFile
{
	version	2.0;
	format	ascii;
	class	dictionary;
	location	"constant";
	object	pedestrianProperties;
}

pedestrians
(
  ped1
    {
      a    a       [0 -1 0 0 0 0 0] 1.34;
      b    b       [0 0 0 0 0 0 0] .05;

      normailzedGradTerm false;

      potentialControls
        {
          boundaryField
            {
              default
                {
                  type	fixedValue;
                  value	uniform 100.0;
                }

              eastPort
                {
                  type	fixedValue;
                  value	uniform -100.0;
                }

              westPort
                {
                  type	fixedValue;
                  value	uniform -100.0;
                }

            }

          source
            {
              default
                {
                  type	fixedValue;
                  value	uniform 0.0;
                }


              internalField	uniform 0;

              defaultPedestrianAttraction -0.0;
              pedestrianAttractions
                {
                  ped1 100;
                }

              jamAttraction -100;
            }

        }

      directionControls
        {
          boundaryField
            {
              default
                {
                  type	fixedValue;
                  value	uniform (0.0 0.0 0.0);
                }

              southPort
                {
                  type	fixedValue;
                  value	uniform (0.0 1.0 0.0);
                }

              eastPort
                {
                  type	fixedValue;
                  value	uniform (1.0 0.0 0.0);
                }

              westPort
                {
                  type	fixedValue;
                  value	uniform (-1.0 0.0 0.0);
                }

            }

        }

      rhoControls
        {
          boundaryField
            {
              default
                {
                  type	zeroGradient;
                }

              eastPort
                {
                  type	calculated;
                  value	uniform 0.0;
                }

              westPort
                {
                  type	calculated;
                  value	uniform 0.0;
                }

            }

        }

      VProfiler linear;
    }

  ped2
    {
      a    a       [0 -1 0 0 0 0 0] 1.34;
      b    b       [0 0 0 0 0 0 0] .05;

      normailzedGradTerm false;

      potentialControls
        {
          boundaryField
            {
              default
                {
                  type	fixedValue;
                  value	uniform 100.0;
                }

              westPort
                {
                  type	fixedValue;
                  value	uniform -100.0;
                }

            }

          source
            {
              default
                {
                  type	fixedValue;
                  value	uniform 0.0;
                }


              internalField	uniform 0;

              defaultPedestrianAttraction -0.0;
              pedestrianAttractions
                {
                  ped2 100;
                }

              jamAttraction -100;
            }

        }

      directionControls
        {
          boundaryField
            {
              default
                {
                  type	fixedValue;
                  value	uniform (0.0 0.0 0.0);
                }

              eastPort
                {
                  type	fixedValue;
                  value	uniform (-1.0 0.0 0.0);
                }

              westPort
                {
                  type	fixedValue;
                  value	uniform (-1.0 0.0 0.0);
                }

            }

        }

      rhoControls
        {
          boundaryField
            {
              default
                {
                  type	zeroGradient;
                }

              westPort
                {
                  type	calculated;
                  value	uniform 0.0;
                }

            }

        }

      VProfiler linear;
    }

);

VMin    VMin    [0 1 -1 0 0 0 0] 0;

VMax    VMax    [0 1 -1 0 0 0 0] 1;
