<?xml version="1.0" encoding="utf-8"?>
<!DOCTYPE facilities SYSTEM "http://www.matsim.org/files/dtd/facilities_v1.dtd">

<facilities name="equil test facilities">

<!-- ====================================================================== -->

	<facility id="1" x="-17500.0" y="0.0">
		<activity type="h">
		</activity>

		<activity type="w">
		</activity>

	</facility>

<!-- ====================================================================== -->

	<facility id="10" x="-7932.5" y="-2962.5">
		<activity type="h">
		</activity>

		<activity type="w">
		</activity>

	</facility>

<!-- ====================================================================== -->

	<facility id="11" x="-432.5" y="2962.5">
		<activity type="h">
		</activity>

		<activity type="w">
		</activity>

	</facility>

<!-- ====================================================================== -->

	<facility id="12" x="-1249.0" y="2165.5">
		<activity type="h">
		</activity>

		<activity type="w">
		</activity>

	</facility>

<!-- ====================================================================== -->

	<facility id="13" x="-1914.5" y="1607.5">
		<activity type="h">
		</activity>

		<activity type="w">
		</activity>

	</facility>

<!-- ====================================================================== -->

	<facility id="14" x="-2349.0" y="855.5">
		<activity type="h">
		</activity>

		<activity type="w">
		</activity>

	</facility>

<!-- ====================================================================== -->

	<facility id="15" x="-2500.0" y="0.0">
		<activity type="h">
		</activity>

		<activity type="w">
		</activity>

	</facility>

<!-- ====================================================================== -->

	<facility id="16" x="-2349.0" y="-855.5">
		<activity type="h">
		</activity>

		<activity type="w">
		</activity>

	</facility>

<!-- ====================================================================== -->

	<facility id="17" x="-1914.5" y="-1607.5">
		<activity type="h">
		</activity>

		<activity type="w">
		</activity>

	</facility>

<!-- ====================================================================== -->

	<facility id="18" x="-1249.0" y="-2165.5">
		<activity type="h">
		</activity>

		<activity type="w">
		</activity>

	</facility>

<!-- ====================================================================== -->

	<facility id="19" x="-432.5" y="-2962.5">
		<activity type="h">
		</activity>

		<activity type="w">
		</activity>

	</facility>

<!-- ====================================================================== -->

	<facility id="2" x="-7932.5" y="2962.5">
		<activity type="h">
		</activity>

		<activity type="w">
		</activity>

	</facility>

<!-- ====================================================================== -->

	<facility id="20" x="2500.0" y="0.0">
		<activity type="h">
		</activity>

		<activity type="w">
		</activity>

	</facility>

<!-- ====================================================================== -->

	<facility id="21" x="5000.0" y="-5000.0">
		<activity type="h">
		</activity>

		<activity type="w">
		</activity>

	</facility>

<!-- ====================================================================== -->

	<facility id="22" x="-7500.0" y="-10000.0">
		<activity type="h">
		</activity>

		<activity type="w">
		</activity>

	</facility>

<!-- ====================================================================== -->

	<facility id="23" x="-20000.0" y="-5000.0">
		<activity type="h">
		</activity>

		<activity type="w">
		</activity>

	</facility>

<!-- ====================================================================== -->

	<facility id="3" x="-8749.0" y="2165.5">
		<activity type="h">
		</activity>

		<activity type="w">
		</activity>

	</facility>

<!-- ====================================================================== -->

	<facility id="4" x="-9414.5" y="1607.5">
		<activity type="h">
		</activity>

		<activity type="w">
		</activity>

	</facility>

<!-- ====================================================================== -->

	<facility id="5" x="-9849.0" y="855.5">
		<activity type="h">
		</activity>

		<activity type="w">
		</activity>

	</facility>

<!-- ====================================================================== -->

	<facility id="6" x="-10000.0" y="0.0">
		<activity type="h">
		</activity>

		<activity type="w">
		</activity>

	</facility>

<!-- ====================================================================== -->

	<facility id="7" x="-9849.0" y="-855.5">
		<activity type="h">
		</activity>

		<activity type="w">
		</activity>

	</facility>

<!-- ====================================================================== -->

	<facility id="8" x="-9414.5" y="-1607.5">
		<activity type="h">
		</activity>

		<activity type="w">
		</activity>

	</facility>

<!-- ====================================================================== -->

	<facility id="9" x="-8749.0" y="-2165.5">
		<activity type="h">
		</activity>

		<activity type="w">
		</activity>

	</facility>

<!-- ====================================================================== -->

</facilities>
