<?xml version="1.0" encoding="UTF-8"?>
<!DOCTYPE facilities SYSTEM "http://www.matsim.org/files/dtd/facilities_v1.dtd">
<facilities>

<!-- ====================================================================== -->

	<facility id="1" x="0.0" y="150.0">
		<activity type="work">
		</activity>
	</facility>

<!-- ====================================================================== -->

	<facility id="10" x="100.0" y="50.0">
		<activity type="work">
		</activity>
	</facility>

<!-- ====================================================================== -->

	<facility id="11" x="150.0" y="100.0">
		<activity type="work">
		</activity>
	</facility>

<!-- ====================================================================== -->

	<facility id="12" x="150.0" y="100.0">
		<activity type="work">
		</activity>
	</facility>

<!-- ====================================================================== -->

	<facility id="13" x="150.0" y="200.0">
		<activity type="work">
		</activity>
	</facility>

<!-- ====================================================================== -->

	<facility id="14" x="150.0" y="200.0">
		<activity type="work">
		</activity>
	</facility>

<!-- ====================================================================== -->

	<facility id="15" x="150.0" y="0.0">
		<activity type="work">
		</activity>
	</facility>

<!-- ====================================================================== -->

	<facility id="16" x="150.0" y="0.0">
		<activity type="work">
		</activity>
	</facility>

<!-- ====================================================================== -->

	<facility id="2" x="0.0" y="150.0">
		<activity type="work">
		</activity>
	</facility>

<!-- ====================================================================== -->

	<facility id="3" x="0.0" y="50.0">
		<activity type="work">
		</activity>
	</facility>

<!-- ====================================================================== -->

	<facility id="4" x="0.0" y="50.0">
		<activity type="work">
		</activity>
	</facility>

<!-- ====================================================================== -->

	<facility id="5" x="50.0" y="100.0">
		<activity type="work">
		</activity>
	</facility>

<!-- ====================================================================== -->

	<facility id="6" x="50.0" y="100.0">
		<activity type="work">
		</activity>
	</facility>

<!-- ====================================================================== -->

	<facility id="7" x="100.0" y="150.0">
		<activity type="work">
		</activity>
	</facility>

<!-- ====================================================================== -->

	<facility id="8" x="100.0" y="150.0">
		<activity type="work">
		</activity>
	</facility>

<!-- ====================================================================== -->

	<facility id="9" x="100.0" y="50.0">
		<activity type="work">
		</activity>
	</facility>

<!-- ====================================================================== -->

</facilities>
