<?xml version="1.0" encoding="UTF-8"?>
<!DOCTYPE facilities SYSTEM "http://www.matsim.org/files/dtd/facilities_v1.dtd">
<facilities>

<!-- ====================================================================== -->

	<facility id="home_0_12052000_12052000_1" x="457358.3698385823" y="5736768.703930341">
		<activity type="home">
		</activity>

	</facility>

<!-- ====================================================================== -->

	<facility id="home_0_12052000_12052000_2" x="457358.3698385823" y="5736768.703930341">
		<activity type="home">
		</activity>

	</facility>

<!-- ====================================================================== -->

	<facility id="home_10000_12052000_12052000_1" x="454688.34083799913" y="5729219.38102037">
		<activity type="home">
		</activity>

	</facility>

<!-- ====================================================================== -->

</facilities>
