<?xml version="1.0" encoding="utf-8"?>
<!DOCTYPE network SYSTEM "http://www.matsim.org/files/dtd/network_v1.dtd">

<network name="Network_Test1">

<!-- ====================================================================== -->

	<nodes>
		<node id="1" x="0.0" y="0.0" />
		<node id="2" x="0.0" y="1000.0" />
		<node id="3" x="0.0" y="2000.0" />
		<node id="4" x="0.0" y="3000.0" />
		<node id="5" x="0.0" y="4000.0" />
		<node id="6" x="0.0" y="5000.0" />
		<node id="7" x="0.0" y="6000.0" />
		<node id="8" x="0.0" y="7000.0" />
		<node id="9" x="0.0" y="8000.0" />
		<node id="10" x="0.0" y="9000.0" />
		<node id="11" x="1000.0" y="0.0" />
		<node id="12" x="1000.0" y="1000.0" />
		<node id="13" x="1000.0" y="2000.0" />
		<node id="14" x="1000.0" y="3000.0" />
		<node id="15" x="1000.0" y="4000.0" />
		<node id="16" x="1000.0" y="5000.0" />
		<node id="17" x="1000.0" y="6000.0" />
		<node id="18" x="1000.0" y="7000.0" />
		<node id="19" x="1000.0" y="8000.0" />
		<node id="20" x="1000.0" y="9000.0" />
		<node id="21" x="2000.0" y="0.0" />
		<node id="22" x="2000.0" y="1000.0" />
		<node id="23" x="2000.0" y="2000.0" />
		<node id="24" x="2000.0" y="3000.0" />
		<node id="25" x="2000.0" y="4000.0" />
		<node id="26" x="2000.0" y="5000.0" />
		<node id="27" x="2000.0" y="6000.0" />
		<node id="28" x="2000.0" y="7000.0" />
		<node id="29" x="2000.0" y="8000.0" />
		<node id="30" x="2000.0" y="9000.0" />
		<node id="31" x="3000.0" y="0.0" />
		<node id="32" x="3000.0" y="1000.0" />
		<node id="33" x="3000.0" y="2000.0" />
		<node id="34" x="3000.0" y="3000.0" />
		<node id="35" x="3000.0" y="4000.0" />
		<node id="36" x="3000.0" y="5000.0" />
		<node id="37" x="3000.0" y="6000.0" />
		<node id="38" x="3000.0" y="7000.0" />
		<node id="39" x="3000.0" y="8000.0" />
		<node id="40" x="3000.0" y="9000.0" />
		<node id="41" x="4000.0" y="0.0" />
		<node id="42" x="4000.0" y="1000.0" />
		<node id="43" x="4000.0" y="2000.0" />
		<node id="44" x="4000.0" y="3000.0" />
		<node id="45" x="4000.0" y="4000.0" />
		<node id="46" x="4000.0" y="5000.0" />
		<node id="47" x="4000.0" y="6000.0" />
		<node id="48" x="4000.0" y="7000.0" />
		<node id="49" x="4000.0" y="8000.0" />
		<node id="50" x="4000.0" y="9000.0" />
		<node id="51" x="5000.0" y="0.0" />
		<node id="52" x="5000.0" y="1000.0" />
		<node id="53" x="5000.0" y="2000.0" />
		<node id="54" x="5000.0" y="3000.0" />
		<node id="55" x="5000.0" y="4000.0" />
		<node id="56" x="5000.0" y="5000.0" />
		<node id="57" x="5000.0" y="6000.0" />
		<node id="58" x="5000.0" y="7000.0" />
		<node id="59" x="5000.0" y="8000.0" />
		<node id="60" x="5000.0" y="9000.0" />
		<node id="61" x="6000.0" y="0.0" />
		<node id="62" x="6000.0" y="1000.0" />
		<node id="63" x="6000.0" y="2000.0" />
		<node id="64" x="6000.0" y="3000.0" />
		<node id="65" x="6000.0" y="4000.0" />
		<node id="66" x="6000.0" y="5000.0" />
		<node id="67" x="6000.0" y="6000.0" />
		<node id="68" x="6000.0" y="7000.0" />
		<node id="69" x="6000.0" y="8000.0" />
		<node id="70" x="6000.0" y="9000.0" />
		<node id="71" x="7000.0" y="0.0" />
		<node id="72" x="7000.0" y="1000.0" />
		<node id="73" x="7000.0" y="2000.0" />
		<node id="74" x="7000.0" y="3000.0" />
		<node id="75" x="7000.0" y="4000.0" />
		<node id="76" x="7000.0" y="5000.0" />
		<node id="77" x="7000.0" y="6000.0" />
		<node id="78" x="7000.0" y="7000.0" />
		<node id="79" x="7000.0" y="8000.0" />
		<node id="80" x="7000.0" y="9000.0" />
		<node id="81" x="8000.0" y="0.0" />
		<node id="82" x="8000.0" y="1000.0" />
		<node id="83" x="8000.0" y="2000.0" />
		<node id="84" x="8000.0" y="3000.0" />
		<node id="85" x="8000.0" y="4000.0" />
		<node id="86" x="8000.0" y="5000.0" />
		<node id="87" x="8000.0" y="6000.0" />
		<node id="88" x="8000.0" y="7000.0" />
		<node id="89" x="8000.0" y="8000.0" />
		<node id="90" x="8000.0" y="9000.0" />
		<node id="91" x="9000.0" y="0.0" />
		<node id="92" x="9000.0" y="1000.0" />
		<node id="93" x="9000.0" y="2000.0" />
		<node id="94" x="9000.0" y="3000.0" />
		<node id="95" x="9000.0" y="4000.0" />
		<node id="96" x="9000.0" y="5000.0" />
		<node id="97" x="9000.0" y="6000.0" />
		<node id="98" x="9000.0" y="7000.0" />
		<node id="99" x="9000.0" y="8000.0" />
		<node id="100" x="9000.0" y="9000.0" />
	</nodes>
<!-- ====================================================================== -->

	<links capperiod="01:00:00" effectivecellsize="7.5" effectivelanewidth="3.75">
		<link id="1" from="1" to="11" length="1000.0" freespeed="7.5" capacity="10.0" permlanes="1.0" oneway="1" origid="1" type="1" />
		<link id="2" from="11" to="21" length="1000.0" freespeed="7.5" capacity="10.0" permlanes="1.0" oneway="1" origid="2" type="1" />
		<link id="3" from="21" to="31" length="1000.0" freespeed="7.5" capacity="10.0" permlanes="1.0" oneway="1" origid="3" type="1" />
		<link id="4" from="31" to="41" length="1000.0" freespeed="7.5" capacity="10.0" permlanes="1.0" oneway="1" origid="4" type="1" />
		<link id="5" from="41" to="51" length="1000.0" freespeed="7.5" capacity="10.0" permlanes="1.0" oneway="1" origid="5" type="1" />
		<link id="6" from="51" to="61" length="1000.0" freespeed="7.5" capacity="10.0" permlanes="1.0" oneway="1" origid="6" type="1" />
		<link id="7" from="61" to="71" length="1000.0" freespeed="7.5" capacity="10.0" permlanes="1.0" oneway="1" origid="7" type="1" />
		<link id="8" from="71" to="81" length="1000.0" freespeed="7.5" capacity="10.0" permlanes="1.0" oneway="1" origid="8" type="1" />
		<link id="9" from="81" to="91" length="1000.0" freespeed="7.5" capacity="10.0" permlanes="1.0" oneway="1" origid="9" type="1" />
		<link id="10" from="3" to="13" length="1000.0" freespeed="7.5" capacity="10.0" permlanes="1.0" oneway="1" origid="10" type="1" />
		<link id="11" from="13" to="23" length="1000.0" freespeed="7.5" capacity="10.0" permlanes="1.0" oneway="1" origid="11" type="1" />
		<link id="12" from="23" to="33" length="1000.0" freespeed="7.5" capacity="10.0" permlanes="1.0" oneway="1" origid="12" type="1" />
		<link id="13" from="33" to="43" length="1000.0" freespeed="7.5" capacity="10.0" permlanes="1.0" oneway="1" origid="13" type="1" />
		<link id="14" from="43" to="53" length="1000.0" freespeed="7.5" capacity="10.0" permlanes="1.0" oneway="1" origid="14" type="1" />
		<link id="15" from="53" to="63" length="1000.0" freespeed="7.5" capacity="10.0" permlanes="1.0" oneway="1" origid="15" type="1" />
		<link id="16" from="63" to="73" length="1000.0" freespeed="7.5" capacity="10.0" permlanes="1.0" oneway="1" origid="16" type="1" />
		<link id="17" from="73" to="83" length="1000.0" freespeed="7.5" capacity="10.0" permlanes="1.0" oneway="1" origid="17" type="1" />
		<link id="18" from="83" to="93" length="1000.0" freespeed="7.5" capacity="10.0" permlanes="1.0" oneway="1" origid="18" type="1" />
		<link id="19" from="5" to="15" length="1000.0" freespeed="7.5" capacity="10.0" permlanes="1.0" oneway="1" origid="19" type="1" />
		<link id="20" from="15" to="25" length="1000.0" freespeed="7.5" capacity="10.0" permlanes="1.0" oneway="1" origid="20" type="1" />
		<link id="21" from="25" to="35" length="1000.0" freespeed="7.5" capacity="10.0" permlanes="1.0" oneway="1" origid="21" type="1" />
		<link id="22" from="35" to="45" length="1000.0" freespeed="7.5" capacity="10.0" permlanes="1.0" oneway="1" origid="22" type="1" />
		<link id="23" from="45" to="55" length="1000.0" freespeed="7.5" capacity="10.0" permlanes="1.0" oneway="1" origid="23" type="1" />
		<link id="24" from="55" to="65" length="1000.0" freespeed="7.5" capacity="10.0" permlanes="1.0" oneway="1" origid="24" type="1" />
		<link id="25" from="65" to="75" length="1000.0" freespeed="7.5" capacity="10.0" permlanes="1.0" oneway="1" origid="25" type="1" />
		<link id="26" from="75" to="85" length="1000.0" freespeed="7.5" capacity="10.0" permlanes="1.0" oneway="1" origid="26" type="1" />
		<link id="27" from="85" to="95" length="1000.0" freespeed="7.5" capacity="10.0" permlanes="1.0" oneway="1" origid="27" type="1" />
		<link id="28" from="7" to="17" length="1000.0" freespeed="7.5" capacity="10.0" permlanes="1.0" oneway="1" origid="28" type="1" />
		<link id="29" from="17" to="27" length="1000.0" freespeed="7.5" capacity="10.0" permlanes="1.0" oneway="1" origid="29" type="1" />
		<link id="30" from="27" to="37" length="1000.0" freespeed="7.5" capacity="10.0" permlanes="1.0" oneway="1" origid="30" type="1" />
		<link id="31" from="37" to="47" length="1000.0" freespeed="7.5" capacity="10.0" permlanes="1.0" oneway="1" origid="31" type="1" />
		<link id="32" from="47" to="57" length="1000.0" freespeed="7.5" capacity="10.0" permlanes="1.0" oneway="1" origid="32" type="1" />
		<link id="33" from="57" to="67" length="1000.0" freespeed="7.5" capacity="10.0" permlanes="1.0" oneway="1" origid="33" type="1" />
		<link id="34" from="67" to="77" length="1000.0" freespeed="7.5" capacity="10.0" permlanes="1.0" oneway="1" origid="34" type="1" />
		<link id="35" from="77" to="87" length="1000.0" freespeed="7.5" capacity="10.0" permlanes="1.0" oneway="1" origid="35" type="1" />
		<link id="36" from="87" to="97" length="1000.0" freespeed="7.5" capacity="10.0" permlanes="1.0" oneway="1" origid="36" type="1" />
		<link id="37" from="9" to="19" length="1000.0" freespeed="7.5" capacity="10.0" permlanes="1.0" oneway="1" origid="37" type="1" />
		<link id="38" from="19" to="29" length="1000.0" freespeed="7.5" capacity="10.0" permlanes="1.0" oneway="1" origid="38" type="1" />
		<link id="39" from="29" to="39" length="1000.0" freespeed="7.5" capacity="10.0" permlanes="1.0" oneway="1" origid="39" type="1" />
		<link id="40" from="39" to="49" length="1000.0" freespeed="7.5" capacity="10.0" permlanes="1.0" oneway="1" origid="40" type="1" />
		<link id="41" from="49" to="59" length="1000.0" freespeed="7.5" capacity="10.0" permlanes="1.0" oneway="1" origid="41" type="1" />
		<link id="42" from="59" to="69" length="1000.0" freespeed="7.5" capacity="10.0" permlanes="1.0" oneway="1" origid="42" type="1" />
		<link id="43" from="69" to="79" length="1000.0" freespeed="7.5" capacity="10.0" permlanes="1.0" oneway="1" origid="43" type="1" />
		<link id="44" from="79" to="89" length="1000.0" freespeed="7.5" capacity="10.0" permlanes="1.0" oneway="1" origid="44" type="1" />
		<link id="45" from="89" to="99" length="1000.0" freespeed="7.5" capacity="10.0" permlanes="1.0" oneway="1" origid="45" type="1" />
		<link id="46" from="12" to="2" length="1000.0" freespeed="7.5" capacity="10.0" permlanes="1.0" oneway="1" origid="46" type="1" />
		<link id="47" from="22" to="12" length="1000.0" freespeed="7.5" capacity="10.0" permlanes="1.0" oneway="1" origid="47" type="1" />
		<link id="48" from="32" to="22" length="1000.0" freespeed="7.5" capacity="10.0" permlanes="1.0" oneway="1" origid="48" type="1" />
		<link id="49" from="42" to="32" length="1000.0" freespeed="7.5" capacity="10.0" permlanes="1.0" oneway="1" origid="49" type="1" />
		<link id="50" from="52" to="42" length="1000.0" freespeed="7.5" capacity="10.0" permlanes="1.0" oneway="1" origid="50" type="1" />
		<link id="51" from="62" to="52" length="1000.0" freespeed="7.5" capacity="10.0" permlanes="1.0" oneway="1" origid="51" type="1" />
		<link id="52" from="72" to="62" length="1000.0" freespeed="7.5" capacity="10.0" permlanes="1.0" oneway="1" origid="52" type="1" />
		<link id="53" from="82" to="72" length="1000.0" freespeed="7.5" capacity="10.0" permlanes="1.0" oneway="1" origid="53" type="1" />
		<link id="54" from="92" to="82" length="1000.0" freespeed="7.5" capacity="10.0" permlanes="1.0" oneway="1" origid="54" type="1" />
		<link id="55" from="14" to="4" length="1000.0" freespeed="7.5" capacity="10.0" permlanes="1.0" oneway="1" origid="55" type="1" />
		<link id="56" from="24" to="14" length="1000.0" freespeed="7.5" capacity="10.0" permlanes="1.0" oneway="1" origid="56" type="1" />
		<link id="57" from="34" to="24" length="1000.0" freespeed="7.5" capacity="10.0" permlanes="1.0" oneway="1" origid="57" type="1" />
		<link id="58" from="44" to="34" length="1000.0" freespeed="7.5" capacity="10.0" permlanes="1.0" oneway="1" origid="58" type="1" />
		<link id="59" from="54" to="44" length="1000.0" freespeed="7.5" capacity="10.0" permlanes="1.0" oneway="1" origid="59" type="1" />
		<link id="60" from="64" to="54" length="1000.0" freespeed="7.5" capacity="10.0" permlanes="1.0" oneway="1" origid="60" type="1" />
		<link id="61" from="74" to="64" length="1000.0" freespeed="7.5" capacity="10.0" permlanes="1.0" oneway="1" origid="61" type="1" />
		<link id="62" from="84" to="74" length="1000.0" freespeed="7.5" capacity="10.0" permlanes="1.0" oneway="1" origid="62" type="1" />
		<link id="63" from="94" to="84" length="1000.0" freespeed="7.5" capacity="10.0" permlanes="1.0" oneway="1" origid="63" type="1" />
		<link id="64" from="16" to="6" length="1000.0" freespeed="7.5" capacity="10.0" permlanes="1.0" oneway="1" origid="64" type="1" />
		<link id="65" from="26" to="16" length="1000.0" freespeed="7.5" capacity="10.0" permlanes="1.0" oneway="1" origid="65" type="1" />
		<link id="66" from="36" to="26" length="1000.0" freespeed="7.5" capacity="10.0" permlanes="1.0" oneway="1" origid="66" type="1" />
		<link id="67" from="46" to="36" length="1000.0" freespeed="7.5" capacity="10.0" permlanes="1.0" oneway="1" origid="67" type="1" />
		<link id="68" from="56" to="46" length="1000.0" freespeed="7.5" capacity="10.0" permlanes="1.0" oneway="1" origid="68" type="1" />
		<link id="69" from="66" to="56" length="1000.0" freespeed="7.5" capacity="10.0" permlanes="1.0" oneway="1" origid="69" type="1" />
		<link id="70" from="76" to="66" length="1000.0" freespeed="7.5" capacity="10.0" permlanes="1.0" oneway="1" origid="70" type="1" />
		<link id="71" from="86" to="76" length="1000.0" freespeed="7.5" capacity="10.0" permlanes="1.0" oneway="1" origid="71" type="1" />
		<link id="72" from="96" to="86" length="1000.0" freespeed="7.5" capacity="10.0" permlanes="1.0" oneway="1" origid="72" type="1" />
		<link id="73" from="18" to="8" length="1000.0" freespeed="7.5" capacity="10.0" permlanes="1.0" oneway="1" origid="73" type="1" />
		<link id="74" from="28" to="18" length="1000.0" freespeed="7.5" capacity="10.0" permlanes="1.0" oneway="1" origid="74" type="1" />
		<link id="75" from="38" to="28" length="1000.0" freespeed="7.5" capacity="10.0" permlanes="1.0" oneway="1" origid="75" type="1" />
		<link id="76" from="48" to="38" length="1000.0" freespeed="7.5" capacity="10.0" permlanes="1.0" oneway="1" origid="76" type="1" />
		<link id="77" from="58" to="48" length="1000.0" freespeed="7.5" capacity="10.0" permlanes="1.0" oneway="1" origid="77" type="1" />
		<link id="78" from="68" to="58" length="1000.0" freespeed="7.5" capacity="10.0" permlanes="1.0" oneway="1" origid="78" type="1" />
		<link id="79" from="78" to="68" length="1000.0" freespeed="7.5" capacity="10.0" permlanes="1.0" oneway="1" origid="79" type="1" />
		<link id="80" from="88" to="78" length="1000.0" freespeed="7.5" capacity="10.0" permlanes="1.0" oneway="1" origid="80" type="1" />
		<link id="81" from="98" to="88" length="1000.0" freespeed="7.5" capacity="10.0" permlanes="1.0" oneway="1" origid="81" type="1" />
		<link id="82" from="20" to="10" length="1000.0" freespeed="7.5" capacity="10.0" permlanes="1.0" oneway="1" origid="82" type="1" />
		<link id="83" from="30" to="20" length="1000.0" freespeed="7.5" capacity="10.0" permlanes="1.0" oneway="1" origid="83" type="1" />
		<link id="84" from="40" to="30" length="1000.0" freespeed="7.5" capacity="10.0" permlanes="1.0" oneway="1" origid="84" type="1" />
		<link id="85" from="50" to="40" length="1000.0" freespeed="7.5" capacity="10.0" permlanes="1.0" oneway="1" origid="85" type="1" />
		<link id="86" from="60" to="50" length="1000.0" freespeed="7.5" capacity="10.0" permlanes="1.0" oneway="1" origid="86" type="1" />
		<link id="87" from="70" to="60" length="1000.0" freespeed="7.5" capacity="10.0" permlanes="1.0" oneway="1" origid="87" type="1" />
		<link id="88" from="80" to="70" length="1000.0" freespeed="7.5" capacity="10.0" permlanes="1.0" oneway="1" origid="88" type="1" />
		<link id="89" from="90" to="80" length="1000.0" freespeed="7.5" capacity="10.0" permlanes="1.0" oneway="1" origid="89" type="1" />
		<link id="90" from="100" to="90" length="1000.0" freespeed="7.5" capacity="10.0" permlanes="1.0" oneway="1" origid="90" type="1" />
		<link id="91" from="2" to="1" length="1000.0" freespeed="7.5" capacity="10.0" permlanes="1.0" oneway="1" origid="91" type="1" />
		<link id="92" from="3" to="2" length="1000.0" freespeed="7.5" capacity="10.0" permlanes="1.0" oneway="1" origid="92" type="1" />
		<link id="93" from="4" to="3" length="1000.0" freespeed="7.5" capacity="10.0" permlanes="1.0" oneway="1" origid="93" type="1" />
		<link id="94" from="5" to="4" length="1000.0" freespeed="7.5" capacity="10.0" permlanes="1.0" oneway="1" origid="94" type="1" />
		<link id="95" from="6" to="5" length="1000.0" freespeed="7.5" capacity="10.0" permlanes="1.0" oneway="1" origid="95" type="1" />
		<link id="96" from="7" to="6" length="1000.0" freespeed="7.5" capacity="10.0" permlanes="1.0" oneway="1" origid="96" type="1" />
		<link id="97" from="8" to="7" length="1000.0" freespeed="7.5" capacity="10.0" permlanes="1.0" oneway="1" origid="97" type="1" />
		<link id="98" from="9" to="8" length="1000.0" freespeed="7.5" capacity="10.0" permlanes="1.0" oneway="1" origid="98" type="1" />
		<link id="99" from="10" to="9" length="1000.0" freespeed="7.5" capacity="10.0" permlanes="1.0" oneway="1" origid="99" type="1" />
		<link id="100" from="22" to="21" length="1000.0" freespeed="7.5" capacity="10.0" permlanes="1.0" oneway="1" origid="100" type="1" />
		<link id="101" from="23" to="22" length="1000.0" freespeed="7.5" capacity="10.0" permlanes="1.0" oneway="1" origid="101" type="1" />
		<link id="102" from="24" to="23" length="1000.0" freespeed="7.5" capacity="10.0" permlanes="1.0" oneway="1" origid="102" type="1" />
		<link id="103" from="25" to="24" length="1000.0" freespeed="7.5" capacity="10.0" permlanes="1.0" oneway="1" origid="103" type="1" />
		<link id="104" from="26" to="25" length="1000.0" freespeed="7.5" capacity="10.0" permlanes="1.0" oneway="1" origid="104" type="1" />
		<link id="105" from="27" to="26" length="1000.0" freespeed="7.5" capacity="10.0" permlanes="1.0" oneway="1" origid="105" type="1" />
		<link id="106" from="28" to="27" length="1000.0" freespeed="7.5" capacity="10.0" permlanes="1.0" oneway="1" origid="106" type="1" />
		<link id="107" from="29" to="28" length="1000.0" freespeed="7.5" capacity="10.0" permlanes="1.0" oneway="1" origid="107" type="1" />
		<link id="108" from="30" to="29" length="1000.0" freespeed="7.5" capacity="10.0" permlanes="1.0" oneway="1" origid="108" type="1" />
		<link id="109" from="42" to="41" length="1000.0" freespeed="7.5" capacity="10.0" permlanes="1.0" oneway="1" origid="109" type="1" />
		<link id="110" from="43" to="42" length="1000.0" freespeed="7.5" capacity="10.0" permlanes="1.0" oneway="1" origid="110" type="1" />
		<link id="111" from="44" to="43" length="1000.0" freespeed="7.5" capacity="10.0" permlanes="1.0" oneway="1" origid="111" type="1" />
		<link id="112" from="45" to="44" length="1000.0" freespeed="7.5" capacity="10.0" permlanes="1.0" oneway="1" origid="112" type="1" />
		<link id="113" from="46" to="45" length="1000.0" freespeed="7.5" capacity="10.0" permlanes="1.0" oneway="1" origid="113" type="1" />
		<link id="114" from="47" to="46" length="1000.0" freespeed="7.5" capacity="10.0" permlanes="1.0" oneway="1" origid="114" type="1" />
		<link id="115" from="48" to="47" length="1000.0" freespeed="7.5" capacity="10.0" permlanes="1.0" oneway="1" origid="115" type="1" />
		<link id="116" from="49" to="48" length="1000.0" freespeed="7.5" capacity="10.0" permlanes="1.0" oneway="1" origid="116" type="1" />
		<link id="117" from="50" to="49" length="1000.0" freespeed="7.5" capacity="10.0" permlanes="1.0" oneway="1" origid="117" type="1" />
		<link id="118" from="62" to="61" length="1000.0" freespeed="7.5" capacity="10.0" permlanes="1.0" oneway="1" origid="118" type="1" />
		<link id="119" from="63" to="62" length="1000.0" freespeed="7.5" capacity="10.0" permlanes="1.0" oneway="1" origid="119" type="1" />
		<link id="120" from="64" to="63" length="1000.0" freespeed="7.5" capacity="10.0" permlanes="1.0" oneway="1" origid="120" type="1" />
		<link id="121" from="65" to="64" length="1000.0" freespeed="7.5" capacity="10.0" permlanes="1.0" oneway="1" origid="121" type="1" />
		<link id="122" from="66" to="65" length="1000.0" freespeed="7.5" capacity="10.0" permlanes="1.0" oneway="1" origid="122" type="1" />
		<link id="123" from="67" to="66" length="1000.0" freespeed="7.5" capacity="10.0" permlanes="1.0" oneway="1" origid="123" type="1" />
		<link id="124" from="68" to="67" length="1000.0" freespeed="7.5" capacity="10.0" permlanes="1.0" oneway="1" origid="124" type="1" />
		<link id="125" from="69" to="68" length="1000.0" freespeed="7.5" capacity="10.0" permlanes="1.0" oneway="1" origid="125" type="1" />
		<link id="126" from="70" to="69" length="1000.0" freespeed="7.5" capacity="10.0" permlanes="1.0" oneway="1" origid="126" type="1" />
		<link id="127" from="82" to="81" length="1000.0" freespeed="7.5" capacity="10.0" permlanes="1.0" oneway="1" origid="127" type="1" />
		<link id="128" from="83" to="82" length="1000.0" freespeed="7.5" capacity="10.0" permlanes="1.0" oneway="1" origid="128" type="1" />
		<link id="129" from="84" to="83" length="1000.0" freespeed="7.5" capacity="10.0" permlanes="1.0" oneway="1" origid="129" type="1" />
		<link id="130" from="85" to="84" length="1000.0" freespeed="7.5" capacity="10.0" permlanes="1.0" oneway="1" origid="130" type="1" />
		<link id="131" from="86" to="85" length="1000.0" freespeed="7.5" capacity="10.0" permlanes="1.0" oneway="1" origid="131" type="1" />
		<link id="132" from="87" to="86" length="1000.0" freespeed="7.5" capacity="10.0" permlanes="1.0" oneway="1" origid="132" type="1" />
		<link id="133" from="88" to="87" length="1000.0" freespeed="7.5" capacity="10.0" permlanes="1.0" oneway="1" origid="133" type="1" />
		<link id="134" from="89" to="88" length="1000.0" freespeed="7.5" capacity="10.0" permlanes="1.0" oneway="1" origid="134" type="1" />
		<link id="135" from="90" to="89" length="1000.0" freespeed="7.5" capacity="10.0" permlanes="1.0" oneway="1" origid="135" type="1" />
		<link id="136" from="11" to="12" length="1000.0" freespeed="7.5" capacity="10.0" permlanes="1.0" oneway="1" origid="136" type="1" />
		<link id="137" from="12" to="13" length="1000.0" freespeed="7.5" capacity="10.0" permlanes="1.0" oneway="1" origid="137" type="1" />
		<link id="138" from="13" to="14" length="1000.0" freespeed="7.5" capacity="10.0" permlanes="1.0" oneway="1" origid="138" type="1" />
		<link id="139" from="14" to="15" length="1000.0" freespeed="7.5" capacity="10.0" permlanes="1.0" oneway="1" origid="139" type="1" />
		<link id="140" from="15" to="16" length="1000.0" freespeed="7.5" capacity="10.0" permlanes="1.0" oneway="1" origid="140" type="1" />
		<link id="141" from="16" to="17" length="1000.0" freespeed="7.5" capacity="10.0" permlanes="1.0" oneway="1" origid="141" type="1" />
		<link id="142" from="17" to="18" length="1000.0" freespeed="7.5" capacity="10.0" permlanes="1.0" oneway="1" origid="142" type="1" />
		<link id="143" from="18" to="19" length="1000.0" freespeed="7.5" capacity="10.0" permlanes="1.0" oneway="1" origid="143" type="1" />
		<link id="144" from="19" to="20" length="1000.0" freespeed="7.5" capacity="10.0" permlanes="1.0" oneway="1" origid="144" type="1" />
		<link id="145" from="31" to="32" length="1000.0" freespeed="7.5" capacity="10.0" permlanes="1.0" oneway="1" origid="145" type="1" />
		<link id="146" from="32" to="33" length="1000.0" freespeed="7.5" capacity="10.0" permlanes="1.0" oneway="1" origid="146" type="1" />
		<link id="147" from="33" to="34" length="1000.0" freespeed="7.5" capacity="10.0" permlanes="1.0" oneway="1" origid="147" type="1" />
		<link id="148" from="34" to="35" length="1000.0" freespeed="7.5" capacity="10.0" permlanes="1.0" oneway="1" origid="148" type="1" />
		<link id="149" from="35" to="36" length="1000.0" freespeed="7.5" capacity="10.0" permlanes="1.0" oneway="1" origid="149" type="1" />
		<link id="150" from="36" to="37" length="1000.0" freespeed="7.5" capacity="10.0" permlanes="1.0" oneway="1" origid="150" type="1" />
		<link id="151" from="37" to="38" length="1000.0" freespeed="7.5" capacity="10.0" permlanes="1.0" oneway="1" origid="151" type="1" />
		<link id="152" from="38" to="39" length="1000.0" freespeed="7.5" capacity="10.0" permlanes="1.0" oneway="1" origid="152" type="1" />
		<link id="153" from="39" to="40" length="1000.0" freespeed="7.5" capacity="10.0" permlanes="1.0" oneway="1" origid="153" type="1" />
		<link id="154" from="51" to="52" length="1000.0" freespeed="7.5" capacity="10.0" permlanes="1.0" oneway="1" origid="154" type="1" />
		<link id="155" from="52" to="53" length="1000.0" freespeed="7.5" capacity="10.0" permlanes="1.0" oneway="1" origid="155" type="1" />
		<link id="156" from="53" to="54" length="1000.0" freespeed="7.5" capacity="10.0" permlanes="1.0" oneway="1" origid="156" type="1" />
		<link id="157" from="54" to="55" length="1000.0" freespeed="7.5" capacity="10.0" permlanes="1.0" oneway="1" origid="157" type="1" />
		<link id="158" from="55" to="56" length="1000.0" freespeed="7.5" capacity="10.0" permlanes="1.0" oneway="1" origid="158" type="1" />
		<link id="159" from="56" to="57" length="1000.0" freespeed="7.5" capacity="10.0" permlanes="1.0" oneway="1" origid="159" type="1" />
		<link id="160" from="57" to="58" length="1000.0" freespeed="7.5" capacity="10.0" permlanes="1.0" oneway="1" origid="160" type="1" />
		<link id="161" from="58" to="59" length="1000.0" freespeed="7.5" capacity="10.0" permlanes="1.0" oneway="1" origid="161" type="1" />
		<link id="162" from="59" to="60" length="1000.0" freespeed="7.5" capacity="10.0" permlanes="1.0" oneway="1" origid="162" type="1" />
		<link id="163" from="71" to="72" length="1000.0" freespeed="7.5" capacity="10.0" permlanes="1.0" oneway="1" origid="163" type="1" />
		<link id="164" from="72" to="73" length="1000.0" freespeed="7.5" capacity="10.0" permlanes="1.0" oneway="1" origid="164" type="1" />
		<link id="165" from="73" to="74" length="1000.0" freespeed="7.5" capacity="10.0" permlanes="1.0" oneway="1" origid="165" type="1" />
		<link id="166" from="74" to="75" length="1000.0" freespeed="7.5" capacity="10.0" permlanes="1.0" oneway="1" origid="166" type="1" />
		<link id="167" from="75" to="76" length="1000.0" freespeed="7.5" capacity="10.0" permlanes="1.0" oneway="1" origid="167" type="1" />
		<link id="168" from="76" to="77" length="1000.0" freespeed="7.5" capacity="10.0" permlanes="1.0" oneway="1" origid="168" type="1" />
		<link id="169" from="77" to="78" length="1000.0" freespeed="7.5" capacity="10.0" permlanes="1.0" oneway="1" origid="169" type="1" />
		<link id="170" from="78" to="79" length="1000.0" freespeed="7.5" capacity="10.0" permlanes="1.0" oneway="1" origid="170" type="1" />
		<link id="171" from="79" to="80" length="1000.0" freespeed="7.5" capacity="10.0" permlanes="1.0" oneway="1" origid="171" type="1" />
		<link id="172" from="91" to="92" length="1000.0" freespeed="7.5" capacity="10.0" permlanes="1.0" oneway="1" origid="172" type="1" />
		<link id="173" from="92" to="93" length="1000.0" freespeed="7.5" capacity="10.0" permlanes="1.0" oneway="1" origid="173" type="1" />
		<link id="174" from="93" to="94" length="1000.0" freespeed="7.5" capacity="10.0" permlanes="1.0" oneway="1" origid="174" type="1" />
		<link id="175" from="94" to="95" length="1000.0" freespeed="7.5" capacity="10.0" permlanes="1.0" oneway="1" origid="175" type="1" />
		<link id="176" from="95" to="96" length="1000.0" freespeed="7.5" capacity="10.0" permlanes="1.0" oneway="1" origid="176" type="1" />
		<link id="177" from="96" to="97" length="1000.0" freespeed="7.5" capacity="10.0" permlanes="1.0" oneway="1" origid="177" type="1" />
		<link id="178" from="97" to="98" length="1000.0" freespeed="7.5" capacity="10.0" permlanes="1.0" oneway="1" origid="178" type="1" />
		<link id="179" from="98" to="99" length="1000.0" freespeed="7.5" capacity="10.0" permlanes="1.0" oneway="1" origid="179" type="1" />
		<link id="180" from="99" to="100" length="1000.0" freespeed="7.5" capacity="10.0" permlanes="1.0" oneway="1" origid="180" type="1" />
	</links>
<!-- ====================================================================== -->

</network>