<?xml version="1.0" encoding="utf-8"?>
<!DOCTYPE plans SYSTEM "http://www.matsim.org/files/dtd/plans_v4.dtd">

<plans name="Plans_Test1">

<!-- ====================================================================== -->

	<person id="1">
		<knowledge>
			<activity type="home">
				<location id="1" isPrimary="yes"/>
			</activity>
			<activity type="work">
				<location id="10" isPrimary="yes"/>
			</activity>
			<activity type="shopping">
				<location id="37" isPrimary="no"/>
			</activity>
			<activity type="leisure">
				<location id="43" isPrimary="no"/>
			</activity>
		</knowledge>

		<plan>
			<act type="home" link="91" facility="1" x="0.0" y="500.0" start_time="00:00:00" dur="08:00:00" end_time="08:00:00" />
			<leg num="0" mode="car" dep_time="08:00:00" trav_time="00:00:00" arr_time="08:00:00">
			<route dist="9000.0" trav_time="00:19:59">1 11 21 31 41 51 61 71 81 91</route>
			</leg>
			<act type="work" link="172" facility="10" x="9000.0" y="500.0" start_time="08:00:00" dur="08:00:00" end_time="16:00:00" />
			<leg num="1" mode="car" dep_time="16:00:00" trav_time="00:00:00" arr_time="16:00:00">
			<route dist="6000.0" trav_time="00:13:20">92 82 72 62 52 42 41</route> 
			</leg>
			<act type="shopping" link="5" facility="37" x="4500" y="0" start_time="16:00:00" dur="02:00:00" end_time="18:00:00" />
			<leg num="2" mode="car" dep_time="18:00:00" trav_time="00:00:00" arr_time="18:00:00">
			 <route dist="3000.0" trav_time="00:06:40">51 52 53 54</route> 
			</leg>
			<act type="leisure" link="59" facility="43" x="4500" y="3000" start_time="18:00:00" dur="02:00:00" end_time="20:00:00" />
			<leg num="3" mode="car" dep_time="20:00:00" trav_time="00:00:00" arr_time="20:00:00">
			 <route dist="6000.0" trav_time="00:13:19">44 34 24 23 22 12 2</route> 
			</leg>
			<act type="home" link="91" facility="1" x="0.0" y="500.0" start_time="20:00:00" dur="04:00:00" end_time="24:00:00" />
		</plan>
	</person>

<!-- ====================================================================== -->

	<person id="2">
		<knowledge>
			<activity type="home">
				<location id="1" isPrimary="yes"/>
			</activity>
			<activity type="work">
				<location id="11" isPrimary="yes"/>
			</activity>
			<activity type="shopping">
				<location id="37" isPrimary="no"/>
			</activity>
			<activity type="leisure">
				<location id="43" isPrimary="no"/>
			</activity>
		</knowledge>

		<plan>
			<act type="home" link="91" facility="1" x="0.0" y="500.0" start_time="00:00:00" dur="08:00:00" end_time="08:00:00" />
			<leg num="0" mode="car" dep_time="08:00:00" trav_time="00:00:00" arr_time="08:00:00">
			</leg>
			<act type="work" link="173" facility="11" x="9000.0" y="1500.0" start_time="08:00:00" dur="08:00:00" end_time="16:00:00" />
			<leg num="1" mode="car" dep_time="16:00:00" trav_time="00:00:00" arr_time="16:00:00">
			</leg>
			<act type="shopping" link="5" facility="37" x="4500" y="0" start_time="16:00:00" dur="02:00:00" end_time="18:00:00" />
			<leg num="2" mode="car" dep_time="18:00:00" trav_time="00:00:00" arr_time="18:00:00">
			</leg>
			<act type="leisure" link="59" facility="43" x="4500" y="3000" start_time="18:00:00" dur="02:00:00" end_time="20:00:00" />
			<leg num="3" mode="car" dep_time="20:00:00" trav_time="00:00:00" arr_time="20:00:00">
			</leg>
			<act type="home" link="91" facility="1" x="0.0" y="500.0" start_time="20:00:00" dur="04:00:00" end_time="24:00:00" />
		</plan>
	</person>

<!-- ====================================================================== -->

	<person id="3">
		<knowledge>
			<activity type="home">
				<location id="1" isPrimary="yes"/>
			</activity>
			<activity type="work">
				<location id="12" isPrimary="yes"/>
			</activity>
			<activity type="shopping">
				<location id="39" isPrimary="no"/>
			</activity>
			<activity type="leisure">
				<location id="43" isPrimary="no"/>
			</activity>
		</knowledge>

		<plan>
			<act type="home" link="91" facility="1" x="0.0" y="500.0" start_time="00:00:00" dur="08:00:00" end_time="08:00:00" />
			<leg num="0" mode="car" dep_time="08:00:00" trav_time="00:00:00" arr_time="08:00:00">
			</leg>
			<act type="work" link="174" facility="12" x="9000.0" y="2500.0" start_time="08:00:00" dur="08:00:00" end_time="16:00:00" />
			<leg num="1" mode="car" dep_time="16:00:00" trav_time="00:00:00" arr_time="16:00:00">
			</leg>
			<act type="shopping" link="23" facility="39" x="4500" y="4000" start_time="16:00:00" dur="02:00:00" end_time="18:00:00" />
			<leg num="2" mode="car" dep_time="18:00:00" trav_time="00:00:00" arr_time="18:00:00">
			</leg>
			<act type="leisure" link="59" facility="43" x="4500" y="3000" start_time="18:00:00" dur="02:00:00" end_time="20:00:00" />
			<leg num="3" mode="car" dep_time="20:00:00" trav_time="00:00:00" arr_time="20:00:00">
			</leg>
			<act type="home" link="91" facility="1" x="0.0" y="500.0" start_time="20:00:00" dur="04:00:00" end_time="24:00:00" />
		</plan>
	</person>

<!-- ====================================================================== -->

	<person id="4">
		<knowledge>
			<activity type="home">
				<location id="1" isPrimary="yes"/>
			</activity>
			<activity type="work">
				<location id="13" isPrimary="yes"/>
			</activity>
			<activity type="shopping">
				<location id="38" isPrimary="no"/>
			</activity>
			<activity type="leisure">
				<location id="45" isPrimary="no"/>
			</activity>
		</knowledge>

		<plan>
			<act type="home" link="91" facility="1" x="0.0" y="500.0" start_time="00:00:00" dur="08:00:00" end_time="08:00:00" />
			<leg num="0" mode="car" dep_time="08:00:00" trav_time="00:00:00" arr_time="08:00:00">
			</leg>
			<act type="work" link="175" facility="13" x="9000.0" y="3500.0" start_time="08:00:00" dur="08:00:00" end_time="16:00:00" />
			<leg num="1" mode="car" dep_time="16:00:00" trav_time="00:00:00" arr_time="16:00:00">
			</leg>
			<act type="shopping" link="14" facility="38" x="4500" y="2000" start_time="16:00:00" dur="02:00:00" end_time="18:00:00" />
			<leg num="2" mode="car" dep_time="18:00:00" trav_time="00:00:00" arr_time="18:00:00">
			</leg>
			<act type="leisure" link="77" facility="45" x="4500" y="7000" start_time="18:00:00" dur="02:00:00" end_time="20:00:00" />
			<leg num="3" mode="car" dep_time="20:00:00" trav_time="00:00:00" arr_time="20:00:00">
			</leg>
			<act type="home" link="91" facility="1" x="0.0" y="500.0" start_time="20:00:00" dur="04:00:00" end_time="24:00:00" />
		</plan>
	</person>

<!-- ====================================================================== -->

	<person id="5">
		<knowledge>
			<activity type="home">
				<location id="1" isPrimary="yes"/>
			</activity>
			<activity type="work">
				<location id="14" isPrimary="yes"/>
			</activity>
			<activity type="shopping">
				<location id="41" isPrimary="no"/>
			</activity>
			<activity type="leisure">
				<location id="44" isPrimary="no"/>
			</activity>
		</knowledge>

		<plan>
			<act type="home" link="91" facility="1" x="0.0" y="500.0" start_time="00:00:00" dur="08:00:00" end_time="08:00:00" />
			<leg num="0" mode="car" dep_time="08:00:00" trav_time="00:00:00" arr_time="08:00:00">
			</leg>
			<act type="work" link="176" facility="14" x="9000.0" y="4500.0" start_time="08:00:00" dur="08:00:00" end_time="16:00:00" />
			<leg num="1" mode="car" dep_time="16:00:00" trav_time="00:00:00" arr_time="16:00:00">
			</leg>
			<act type="shopping" link="41" facility="41" x="4500" y="8000" start_time="16:00:00" dur="02:00:00" end_time="18:00:00" />
			<leg num="2" mode="car" dep_time="18:00:00" trav_time="00:00:00" arr_time="18:00:00">
			</leg>
			<act type="leisure" link="68" facility="44" x="4500" y="5000" start_time="18:00:00" dur="02:00:00" end_time="20:00:00" />
			<leg num="3" mode="car" dep_time="20:00:00" trav_time="00:00:00" arr_time="20:00:00">
			</leg>
			<act type="home" link="91" facility="1" x="0.0" y="500.0" start_time="20:00:00" dur="04:00:00" end_time="24:00:00" />
		</plan>
	</person>

<!-- ====================================================================== -->

	<person id="6">
		<knowledge>
			<activity type="home">
				<location id="1" isPrimary="yes"/>
			</activity>
			<activity type="work">
				<location id="15" isPrimary="yes"/>
			</activity>
			<activity type="shopping">
				<location id="38" isPrimary="no"/>
			</activity>
			<activity type="leisure">
				<location id="43" isPrimary="no"/>
			</activity>
		</knowledge>

		<plan>
			<act type="home" link="91" facility="1" x="0.0" y="500.0" start_time="00:00:00" dur="08:00:00" end_time="08:00:00" />
			<leg num="0" mode="car" dep_time="08:00:00" trav_time="00:00:00" arr_time="08:00:00">
			</leg>
			<act type="work" link="177" facility="15" x="9000.0" y="5500.0" start_time="08:00:00" dur="08:00:00" end_time="16:00:00" />
			<leg num="1" mode="car" dep_time="16:00:00" trav_time="00:00:00" arr_time="16:00:00">
			</leg>
			<act type="shopping" link="14" facility="38" x="4500" y="2000" start_time="16:00:00" dur="02:00:00" end_time="18:00:00" />
			<leg num="2" mode="car" dep_time="18:00:00" trav_time="00:00:00" arr_time="18:00:00">
			</leg>
			<act type="leisure" link="59" facility="43" x="4500" y="3000" start_time="18:00:00" dur="02:00:00" end_time="20:00:00" />
			<leg num="3" mode="car" dep_time="20:00:00" trav_time="00:00:00" arr_time="20:00:00">
			</leg>
			<act type="home" link="91" facility="1" x="0.0" y="500.0" start_time="20:00:00" dur="04:00:00" end_time="24:00:00" />
		</plan>
	</person>

<!-- ====================================================================== -->

	<person id="7">
		<knowledge>
			<activity type="home">
				<location id="1" isPrimary="yes"/>
			</activity>
			<activity type="work">
				<location id="16" isPrimary="yes"/>
			</activity>
			<activity type="shopping">
				<location id="38" isPrimary="no"/>
			</activity>
			<activity type="leisure">
				<location id="46" isPrimary="no"/>
			</activity>
		</knowledge>

		<plan>
			<act type="home" link="91" facility="1" x="0.0" y="500.0" start_time="00:00:00" dur="08:00:00" end_time="08:00:00" />
			<leg num="0" mode="car" dep_time="08:00:00" trav_time="00:00:00" arr_time="08:00:00">
			</leg>
			<act type="work" link="178" facility="16" x="9000.0" y="6500.0" start_time="08:00:00" dur="08:00:00" end_time="16:00:00" />
			<leg num="1" mode="car" dep_time="16:00:00" trav_time="00:00:00" arr_time="16:00:00">
			</leg>
			<act type="shopping" link="14" facility="38" x="4500" y="2000" start_time="16:00:00" dur="02:00:00" end_time="18:00:00" />
			<leg num="2" mode="car" dep_time="18:00:00" trav_time="00:00:00" arr_time="18:00:00">
			</leg>
			<act type="leisure" link="86" facility="46" x="4500" y="9000" start_time="18:00:00" dur="02:00:00" end_time="20:00:00" />
			<leg num="3" mode="car" dep_time="20:00:00" trav_time="00:00:00" arr_time="20:00:00">
			</leg>
			<act type="home" link="91" facility="1" x="0.0" y="500.0" start_time="20:00:00" dur="04:00:00" end_time="24:00:00" />
		</plan>
	</person>

<!-- ====================================================================== -->

	<person id="8">
		<knowledge>
			<activity type="home">
				<location id="1" isPrimary="yes"/>
			</activity>
			<activity type="work">
				<location id="17" isPrimary="yes"/>
			</activity>
			<activity type="shopping">
				<location id="40" isPrimary="no"/>
			</activity>
			<activity type="leisure">
				<location id="46" isPrimary="no"/>
			</activity>
		</knowledge>

		<plan>
			<act type="home" link="91" facility="1" x="0.0" y="500.0" start_time="00:00:00" dur="08:00:00" end_time="08:00:00" />
			<leg num="0" mode="car" dep_time="08:00:00" trav_time="00:00:00" arr_time="08:00:00">
			</leg>
			<act type="work" link="179" facility="17" x="9000.0" y="7500.0" start_time="08:00:00" dur="08:00:00" end_time="16:00:00" />
			<leg num="1" mode="car" dep_time="16:00:00" trav_time="00:00:00" arr_time="16:00:00">
			</leg>
			<act type="shopping" link="32" facility="40" x="4500" y="6000" start_time="16:00:00" dur="02:00:00" end_time="18:00:00" />
			<leg num="2" mode="car" dep_time="18:00:00" trav_time="00:00:00" arr_time="18:00:00">
			</leg>
			<act type="leisure" link="86" facility="46" x="4500" y="9000" start_time="18:00:00" dur="02:00:00" end_time="20:00:00" />
			<leg num="3" mode="car" dep_time="20:00:00" trav_time="00:00:00" arr_time="20:00:00">
			</leg>
			<act type="home" link="91" facility="1" x="0.0" y="500.0" start_time="20:00:00" dur="04:00:00" end_time="24:00:00" />
		</plan>
	</person>

<!-- ====================================================================== -->

	<person id="9">
		<knowledge>
			<activity type="home">
				<location id="1" isPrimary="yes"/>
			</activity>
			<activity type="work">
				<location id="18" isPrimary="yes"/>
			</activity>
			<activity type="shopping">
				<location id="39" isPrimary="no"/>
			</activity>
			<activity type="leisure">
				<location id="46" isPrimary="no"/>
			</activity>
		</knowledge>

		<plan>
			<act type="home" link="91" facility="1" x="0.0" y="500.0" start_time="00:00:00" dur="08:00:00" end_time="08:00:00" />
			<leg num="0" mode="car" dep_time="08:00:00" trav_time="00:00:00" arr_time="08:00:00">
			</leg>
			<act type="work" link="180" facility="18" x="9000.0" y="8500.0" start_time="08:00:00" dur="08:00:00" end_time="16:00:00" />
			<leg num="1" mode="car" dep_time="16:00:00" trav_time="00:00:00" arr_time="16:00:00">
			</leg>
			<act type="shopping" link="23" facility="39" x="4500" y="4000" start_time="16:00:00" dur="02:00:00" end_time="18:00:00" />
			<leg num="2" mode="car" dep_time="18:00:00" trav_time="00:00:00" arr_time="18:00:00">
			</leg>
			<act type="leisure" link="86" facility="46" x="4500" y="9000" start_time="18:00:00" dur="02:00:00" end_time="20:00:00" />
			<leg num="3" mode="car" dep_time="20:00:00" trav_time="00:00:00" arr_time="20:00:00">
			</leg>
			<act type="home" link="91" facility="1" x="0.0" y="500.0" start_time="20:00:00" dur="04:00:00" end_time="24:00:00" />
		</plan>
	</person>

<!-- ====================================================================== -->

	<person id="10">
		<knowledge>
			<activity type="home">
				<location id="2" isPrimary="yes"/>
			</activity>
			<activity type="work">
				<location id="10" isPrimary="yes"/>
			</activity>
			<activity type="shopping">
				<location id="37" isPrimary="no"/>
			</activity>
			<activity type="leisure">
				<location id="42" isPrimary="no"/>
			</activity>
		</knowledge>

		<plan>
			<act type="home" link="92" facility="2" x="0.0" y="1500.0" start_time="00:00:00" dur="08:00:00" end_time="08:00:00" />
			<leg num="0" mode="car" dep_time="08:00:00" trav_time="00:00:00" arr_time="08:00:00">
			</leg>
			<act type="work" link="172" facility="10" x="9000.0" y="500.0" start_time="08:00:00" dur="08:00:00" end_time="16:00:00" />
			<leg num="1" mode="car" dep_time="16:00:00" trav_time="00:00:00" arr_time="16:00:00">
			</leg>
			<act type="shopping" link="5" facility="37" x="4500" y="0" start_time="16:00:00" dur="02:00:00" end_time="18:00:00" />
			<leg num="2" mode="car" dep_time="18:00:00" trav_time="00:00:00" arr_time="18:00:00">
			</leg>
			<act type="leisure" link="50" facility="42" x="4500" y="1000" start_time="18:00:00" dur="02:00:00" end_time="20:00:00" />
			<leg num="3" mode="car" dep_time="20:00:00" trav_time="00:00:00" arr_time="20:00:00">
			</leg>
			<act type="home" link="92" facility="2" x="0.0" y="1500.0" start_time="20:00:00" dur="04:00:00" end_time="24:00:00" />
		</plan>
	</person>

<!-- ====================================================================== -->

	<person id="11">
		<knowledge>
			<activity type="home">
				<location id="2" isPrimary="yes"/>
			</activity>
			<activity type="work">
				<location id="11" isPrimary="yes"/>
			</activity>
			<activity type="shopping">
				<location id="40" isPrimary="no"/>
			</activity>
			<activity type="leisure">
				<location id="43" isPrimary="no"/>
			</activity>
		</knowledge>

		<plan>
			<act type="home" link="92" facility="2" x="0.0" y="1500.0" start_time="00:00:00" dur="08:00:00" end_time="08:00:00" />
			<leg num="0" mode="car" dep_time="08:00:00" trav_time="00:00:00" arr_time="08:00:00">
			</leg>
			<act type="work" link="173" facility="11" x="9000.0" y="1500.0" start_time="08:00:00" dur="08:00:00" end_time="16:00:00" />
			<leg num="1" mode="car" dep_time="16:00:00" trav_time="00:00:00" arr_time="16:00:00">
			</leg>
			<act type="shopping" link="32" facility="40" x="4500" y="6000" start_time="16:00:00" dur="02:00:00" end_time="18:00:00" />
			<leg num="2" mode="car" dep_time="18:00:00" trav_time="00:00:00" arr_time="18:00:00">
			</leg>
			<act type="leisure" link="59" facility="43" x="4500" y="3000" start_time="18:00:00" dur="02:00:00" end_time="20:00:00" />
			<leg num="3" mode="car" dep_time="20:00:00" trav_time="00:00:00" arr_time="20:00:00">
			</leg>
			<act type="home" link="92" facility="2" x="0.0" y="1500.0" start_time="20:00:00" dur="04:00:00" end_time="24:00:00" />
		</plan>
	</person>

<!-- ====================================================================== -->

	<person id="12">
		<knowledge>
			<activity type="home">
				<location id="2" isPrimary="yes"/>
			</activity>
			<activity type="work">
				<location id="12" isPrimary="yes"/>
			</activity>
			<activity type="shopping">
				<location id="41" isPrimary="no"/>
			</activity>
			<activity type="leisure">
				<location id="45" isPrimary="no"/>
			</activity>
		</knowledge>

		<plan>
			<act type="home" link="92" facility="2" x="0.0" y="1500.0" start_time="00:00:00" dur="08:00:00" end_time="08:00:00" />
			<leg num="0" mode="car" dep_time="08:00:00" trav_time="00:00:00" arr_time="08:00:00">
			</leg>
			<act type="work" link="174" facility="12" x="9000.0" y="2500.0" start_time="08:00:00" dur="08:00:00" end_time="16:00:00" />
			<leg num="1" mode="car" dep_time="16:00:00" trav_time="00:00:00" arr_time="16:00:00">
			</leg>
			<act type="shopping" link="41" facility="41" x="4500" y="8000" start_time="16:00:00" dur="02:00:00" end_time="18:00:00" />
			<leg num="2" mode="car" dep_time="18:00:00" trav_time="00:00:00" arr_time="18:00:00">
			</leg>
			<act type="leisure" link="77" facility="45" x="4500" y="7000" start_time="18:00:00" dur="02:00:00" end_time="20:00:00" />
			<leg num="3" mode="car" dep_time="20:00:00" trav_time="00:00:00" arr_time="20:00:00">
			</leg>
			<act type="home" link="92" facility="2" x="0.0" y="1500.0" start_time="20:00:00" dur="04:00:00" end_time="24:00:00" />
		</plan>
	</person>

<!-- ====================================================================== -->

	<person id="13">
		<knowledge>
			<activity type="home">
				<location id="2" isPrimary="yes"/>
			</activity>
			<activity type="work">
				<location id="13" isPrimary="yes"/>
			</activity>
			<activity type="shopping">
				<location id="38" isPrimary="no"/>
			</activity>
			<activity type="leisure">
				<location id="44" isPrimary="no"/>
			</activity>
		</knowledge>

		<plan>
			<act type="home" link="92" facility="2" x="0.0" y="1500.0" start_time="00:00:00" dur="08:00:00" end_time="08:00:00" />
			<leg num="0" mode="car" dep_time="08:00:00" trav_time="00:00:00" arr_time="08:00:00">
			</leg>
			<act type="work" link="175" facility="13" x="9000.0" y="3500.0" start_time="08:00:00" dur="08:00:00" end_time="16:00:00" />
			<leg num="1" mode="car" dep_time="16:00:00" trav_time="00:00:00" arr_time="16:00:00">
			</leg>
			<act type="shopping" link="14" facility="38" x="4500" y="2000" start_time="16:00:00" dur="02:00:00" end_time="18:00:00" />
			<leg num="2" mode="car" dep_time="18:00:00" trav_time="00:00:00" arr_time="18:00:00">
			</leg>
			<act type="leisure" link="68" facility="44" x="4500" y="5000" start_time="18:00:00" dur="02:00:00" end_time="20:00:00" />
			<leg num="3" mode="car" dep_time="20:00:00" trav_time="00:00:00" arr_time="20:00:00">
			</leg>
			<act type="home" link="92" facility="2" x="0.0" y="1500.0" start_time="20:00:00" dur="04:00:00" end_time="24:00:00" />
		</plan>
	</person>

<!-- ====================================================================== -->

	<person id="14">
		<knowledge>
			<activity type="home">
				<location id="2" isPrimary="yes"/>
			</activity>
			<activity type="work">
				<location id="14" isPrimary="yes"/>
			</activity>
			<activity type="shopping">
				<location id="38" isPrimary="no"/>
			</activity>
			<activity type="leisure">
				<location id="43" isPrimary="no"/>
			</activity>
		</knowledge>

		<plan>
			<act type="home" link="92" facility="2" x="0.0" y="1500.0" start_time="00:00:00" dur="08:00:00" end_time="08:00:00" />
			<leg num="0" mode="car" dep_time="08:00:00" trav_time="00:00:00" arr_time="08:00:00">
			</leg>
			<act type="work" link="176" facility="14" x="9000.0" y="4500.0" start_time="08:00:00" dur="08:00:00" end_time="16:00:00" />
			<leg num="1" mode="car" dep_time="16:00:00" trav_time="00:00:00" arr_time="16:00:00">
			</leg>
			<act type="shopping" link="14" facility="38" x="4500" y="2000" start_time="16:00:00" dur="02:00:00" end_time="18:00:00" />
			<leg num="2" mode="car" dep_time="18:00:00" trav_time="00:00:00" arr_time="18:00:00">
			</leg>
			<act type="leisure" link="59" facility="43" x="4500" y="3000" start_time="18:00:00" dur="02:00:00" end_time="20:00:00" />
			<leg num="3" mode="car" dep_time="20:00:00" trav_time="00:00:00" arr_time="20:00:00">
			</leg>
			<act type="home" link="92" facility="2" x="0.0" y="1500.0" start_time="20:00:00" dur="04:00:00" end_time="24:00:00" />
		</plan>
	</person>

<!-- ====================================================================== -->

	<person id="15">
		<knowledge>
			<activity type="home">
				<location id="2" isPrimary="yes"/>
			</activity>
			<activity type="work">
				<location id="15" isPrimary="yes"/>
			</activity>
			<activity type="shopping">
				<location id="40" isPrimary="no"/>
			</activity>
			<activity type="leisure">
				<location id="44" isPrimary="no"/>
			</activity>
		</knowledge>

		<plan>
			<act type="home" link="92" facility="2" x="0.0" y="1500.0" start_time="00:00:00" dur="08:00:00" end_time="08:00:00" />
			<leg num="0" mode="car" dep_time="08:00:00" trav_time="00:00:00" arr_time="08:00:00">
			</leg>
			<act type="work" link="177" facility="15" x="9000.0" y="5500.0" start_time="08:00:00" dur="08:00:00" end_time="16:00:00" />
			<leg num="1" mode="car" dep_time="16:00:00" trav_time="00:00:00" arr_time="16:00:00">
			</leg>
			<act type="shopping" link="32" facility="40" x="4500" y="6000" start_time="16:00:00" dur="02:00:00" end_time="18:00:00" />
			<leg num="2" mode="car" dep_time="18:00:00" trav_time="00:00:00" arr_time="18:00:00">
			</leg>
			<act type="leisure" link="68" facility="44" x="4500" y="5000" start_time="18:00:00" dur="02:00:00" end_time="20:00:00" />
			<leg num="3" mode="car" dep_time="20:00:00" trav_time="00:00:00" arr_time="20:00:00">
			</leg>
			<act type="home" link="92" facility="2" x="0.0" y="1500.0" start_time="20:00:00" dur="04:00:00" end_time="24:00:00" />
		</plan>
	</person>

<!-- ====================================================================== -->

	<person id="16">
		<knowledge>
			<activity type="home">
				<location id="2" isPrimary="yes"/>
			</activity>
			<activity type="work">
				<location id="16" isPrimary="yes"/>
			</activity>
			<activity type="shopping">
				<location id="41" isPrimary="no"/>
			</activity>
			<activity type="leisure">
				<location id="44" isPrimary="no"/>
			</activity>
		</knowledge>

		<plan>
			<act type="home" link="92" facility="2" x="0.0" y="1500.0" start_time="00:00:00" dur="08:00:00" end_time="08:00:00" />
			<leg num="0" mode="car" dep_time="08:00:00" trav_time="00:00:00" arr_time="08:00:00">
			</leg>
			<act type="work" link="178" facility="16" x="9000.0" y="6500.0" start_time="08:00:00" dur="08:00:00" end_time="16:00:00" />
			<leg num="1" mode="car" dep_time="16:00:00" trav_time="00:00:00" arr_time="16:00:00">
			</leg>
			<act type="shopping" link="41" facility="41" x="4500" y="8000" start_time="16:00:00" dur="02:00:00" end_time="18:00:00" />
			<leg num="2" mode="car" dep_time="18:00:00" trav_time="00:00:00" arr_time="18:00:00">
			</leg>
			<act type="leisure" link="68" facility="44" x="4500" y="5000" start_time="18:00:00" dur="02:00:00" end_time="20:00:00" />
			<leg num="3" mode="car" dep_time="20:00:00" trav_time="00:00:00" arr_time="20:00:00">
			</leg>
			<act type="home" link="92" facility="2" x="0.0" y="1500.0" start_time="20:00:00" dur="04:00:00" end_time="24:00:00" />
		</plan>
	</person>

<!-- ====================================================================== -->

	<person id="17">
		<knowledge>
			<activity type="home">
				<location id="2" isPrimary="yes"/>
			</activity>
			<activity type="work">
				<location id="17" isPrimary="yes"/>
			</activity>
			<activity type="shopping">
				<location id="38" isPrimary="no"/>
			</activity>
			<activity type="leisure">
				<location id="42" isPrimary="no"/>
			</activity>
		</knowledge>

		<plan>
			<act type="home" link="92" facility="2" x="0.0" y="1500.0" start_time="00:00:00" dur="08:00:00" end_time="08:00:00" />
			<leg num="0" mode="car" dep_time="08:00:00" trav_time="00:00:00" arr_time="08:00:00">
			</leg>
			<act type="work" link="179" facility="17" x="9000.0" y="7500.0" start_time="08:00:00" dur="08:00:00" end_time="16:00:00" />
			<leg num="1" mode="car" dep_time="16:00:00" trav_time="00:00:00" arr_time="16:00:00">
			</leg>
			<act type="shopping" link="14" facility="38" x="4500" y="2000" start_time="16:00:00" dur="02:00:00" end_time="18:00:00" />
			<leg num="2" mode="car" dep_time="18:00:00" trav_time="00:00:00" arr_time="18:00:00">
			</leg>
			<act type="leisure" link="50" facility="42" x="4500" y="1000" start_time="18:00:00" dur="02:00:00" end_time="20:00:00" />
			<leg num="3" mode="car" dep_time="20:00:00" trav_time="00:00:00" arr_time="20:00:00">
			</leg>
			<act type="home" link="92" facility="2" x="0.0" y="1500.0" start_time="20:00:00" dur="04:00:00" end_time="24:00:00" />
		</plan>
	</person>

<!-- ====================================================================== -->

	<person id="18">
		<knowledge>
			<activity type="home">
				<location id="2" isPrimary="yes"/>
			</activity>
			<activity type="work">
				<location id="18" isPrimary="yes"/>
			</activity>
			<activity type="shopping">
				<location id="38" isPrimary="no"/>
			</activity>
			<activity type="leisure">
				<location id="43" isPrimary="no"/>
			</activity>
		</knowledge>

		<plan>
			<act type="home" link="92" facility="2" x="0.0" y="1500.0" start_time="00:00:00" dur="08:00:00" end_time="08:00:00" />
			<leg num="0" mode="car" dep_time="08:00:00" trav_time="00:00:00" arr_time="08:00:00">
			</leg>
			<act type="work" link="180" facility="18" x="9000.0" y="8500.0" start_time="08:00:00" dur="08:00:00" end_time="16:00:00" />
			<leg num="1" mode="car" dep_time="16:00:00" trav_time="00:00:00" arr_time="16:00:00">
			</leg>
			<act type="shopping" link="14" facility="38" x="4500" y="2000" start_time="16:00:00" dur="02:00:00" end_time="18:00:00" />
			<leg num="2" mode="car" dep_time="18:00:00" trav_time="00:00:00" arr_time="18:00:00">
			</leg>
			<act type="leisure" link="59" facility="43" x="4500" y="3000" start_time="18:00:00" dur="02:00:00" end_time="20:00:00" />
			<leg num="3" mode="car" dep_time="20:00:00" trav_time="00:00:00" arr_time="20:00:00">
			</leg>
			<act type="home" link="92" facility="2" x="0.0" y="1500.0" start_time="20:00:00" dur="04:00:00" end_time="24:00:00" />
		</plan>
	</person>

<!-- ====================================================================== -->

	<person id="19">
		<knowledge>
			<activity type="home">
				<location id="3" isPrimary="yes"/>
			</activity>
			<activity type="work">
				<location id="10" isPrimary="yes"/>
			</activity>
			<activity type="shopping">
				<location id="39" isPrimary="no"/>
			</activity>
			<activity type="leisure">
				<location id="43" isPrimary="no"/>
			</activity>
		</knowledge>

		<plan>
			<act type="home" link="93" facility="3" x="0.0" y="2500.0" start_time="00:00:00" dur="08:00:00" end_time="08:00:00" />
			<leg num="0" mode="car" dep_time="08:00:00" trav_time="00:00:00" arr_time="08:00:00">
			</leg>
			<act type="work" link="172" facility="10" x="9000.0" y="500.0" start_time="08:00:00" dur="08:00:00" end_time="16:00:00" />
			<leg num="1" mode="car" dep_time="16:00:00" trav_time="00:00:00" arr_time="16:00:00">
			</leg>
			<act type="shopping" link="23" facility="39" x="4500" y="4000" start_time="16:00:00" dur="02:00:00" end_time="18:00:00" />
			<leg num="2" mode="car" dep_time="18:00:00" trav_time="00:00:00" arr_time="18:00:00">
			</leg>
			<act type="leisure" link="59" facility="43" x="4500" y="3000" start_time="18:00:00" dur="02:00:00" end_time="20:00:00" />
			<leg num="3" mode="car" dep_time="20:00:00" trav_time="00:00:00" arr_time="20:00:00">
			</leg>
			<act type="home" link="93" facility="3" x="0.0" y="2500.0" start_time="20:00:00" dur="04:00:00" end_time="24:00:00" />
		</plan>
	</person>

<!-- ====================================================================== -->

	<person id="20">
		<knowledge>
			<activity type="home">
				<location id="3" isPrimary="yes"/>
			</activity>
			<activity type="work">
				<location id="11" isPrimary="yes"/>
			</activity>
			<activity type="shopping">
				<location id="37" isPrimary="no"/>
			</activity>
			<activity type="leisure">
				<location id="43" isPrimary="no"/>
			</activity>
		</knowledge>

		<plan>
			<act type="home" link="93" facility="3" x="0.0" y="2500.0" start_time="00:00:00" dur="08:00:00" end_time="08:00:00" />
			<leg num="0" mode="car" dep_time="08:00:00" trav_time="00:00:00" arr_time="08:00:00">
			</leg>
			<act type="work" link="173" facility="11" x="9000.0" y="1500.0" start_time="08:00:00" dur="08:00:00" end_time="16:00:00" />
			<leg num="1" mode="car" dep_time="16:00:00" trav_time="00:00:00" arr_time="16:00:00">
			</leg>