<?xml version="1.0" encoding="utf-8"?>
<!DOCTYPE facilities SYSTEM "http://www.matsim.org/files/dtd/facilities_v1.dtd">

<facilities name="equil test facilities">

<!-- ====================================================================== -->

	<facility id="1" x="-20000" y="-5000">
		<activity type="h">
		</activity>
	</facility>

<!-- ====================================================================== -->

	<facility id="2" x="5000" y="-5000">
		<activity type="w">
		</activity>
	</facility>

</facilities>
