<?xml version="1.0" encoding="UTF-8"?>
<networkChangeEvents xmlns="http://www.matsim.org/files/dtd" xmlns:xsi="http://www.w3.org/2001/XMLSchema-instance" xsi:schemaLocation="http://www.matsim.org/files/dtd http://www.matsim.org/files/dtd/networkChangeEvents.xsd">

	<networkChangeEvent startTime="03:18:00">
		<link refId="109032"/>
		<link refId="111570"/>
		<link refId="7703"/>
		<link refId="107703"/>
		<link refId="11570"/>
		<link refId="9032"/>
		<link refId="100484"/>
		<link refId="101558"/>
		<link refId="1227"/>
		<link refId="101227"/>
		<link refId="1558"/>
		<link refId="484"/>
		<link refId="104341"/>
		<link refId="108412"/>
		<link refId="1945"/>
		<link refId="101945"/>
		<link refId="4341"/>
		<link refId="8412"/>
		<link refId="100490"/>
		<link refId="5570"/>
		<link refId="938"/>
		<link refId="100938"/>
		<link refId="105570"/>
		<link refId="490"/>
		<link refId="105234"/>
		<link refId="107705"/>
		<link refId="963"/>
		<link refId="100963"/>
		<link refId="5234"/>
		<link refId="7705"/>
		<link refId="103082"/>
		<link refId="110663"/>
		<link refId="4349"/>
		<link refId="104349"/>
		<link refId="10663"/>
		<link refId="3082"/>
		<link refId="107882"/>
		<link refId="4441"/>
		<link refId="104441"/>
		<link refId="7882"/>
		<link refId="104883"/>
		<link refId="106090"/>
		<link refId="4883"/>
		<link refId="6090"/>
		<link refId="7378"/>
		<link refId="107378"/>
		<link refId="102177"/>
		<link refId="2177"/>
		<link refId="109150"/>
		<link refId="9150"/>
		<freespeed type="absolute" value="0.0"/>
	</networkChangeEvent>

	<networkChangeEvent startTime="03:19:00">
		<link refId="10581"/>
		<link refId="110581"/>
		<link refId="102716"/>
		<link refId="110168"/>
		<link refId="10168"/>
		<link refId="2716"/>
		<link refId="110905"/>
		<link refId="10905"/>
		<link refId="107806"/>
		<link refId="7806"/>
		<freespeed type="absolute" value="0.0"/>
	</networkChangeEvent>

	<networkChangeEvent startTime="03:20:00">
		<link refId="9230"/>
		<link refId="1557519410"/>
		<link refId="109006"/>
		<link refId="110781"/>
		<link refId="10781"/>
		<link refId="9006"/>
		<link refId="8493"/>
		<link refId="108493"/>
		<link refId="100272"/>
		<link refId="104061"/>
		<link refId="272"/>
		<link refId="4061"/>
		<link refId="105840"/>
		<link refId="1407368263"/>
		<link refId="5840"/>
		<link refId="816"/>
		<link refId="100816"/>
		<link refId="103424"/>
		<link refId="108738"/>
		<link refId="3424"/>
		<link refId="8738"/>
		<link refId="106721"/>
		<link refId="6721"/>
		<link refId="101388"/>
		<link refId="1388"/>
		<link refId="109230"/>
		<link refId="103343"/>
		<link refId="3343"/>
		<freespeed type="absolute" value="0.0"/>
	</networkChangeEvent>

	<networkChangeEvent startTime="03:21:00">
		<link refId="109263"/>
		<link refId="5753"/>
		<link refId="105753"/>
		<link refId="9263"/>
		<link refId="107013"/>
		<link refId="7013"/>
		<link refId="108981"/>
		<link refId="7"/>
		<link refId="836127661"/>
		<link refId="100007"/>
		<link refId="109695"/>
		<link refId="8981"/>
		<link refId="103042"/>
		<link refId="3042"/>
		<link refId="106702"/>
		<link refId="108396"/>
		<link refId="6702"/>
		<link refId="8396"/>
		<link refId="101631"/>
		<link refId="10666"/>
		<link refId="2509"/>
		<link refId="102509"/>
		<link refId="110666"/>
		<link refId="1631"/>
		<link refId="2360"/>
		<link refId="809"/>
		<link refId="8928"/>
		<link refId="100809"/>
		<link refId="102360"/>
		<link refId="108928"/>
		<link refId="145311437"/>
		<link refId="3293"/>
		<link refId="103293"/>
		<link refId="109181"/>
		<link refId="6557"/>
		<link refId="106557"/>
		<link refId="9181"/>
		<link refId="9695"/>
		<link refId="12160"/>
		<link refId="112160"/>
		<link refId="111066"/>
		<link refId="7340"/>
		<link refId="107340"/>
		<link refId="11066"/>
		<freespeed type="absolute" value="0.0"/>
	</networkChangeEvent>

	<networkChangeEvent startTime="03:22:00">
		<link refId="107103"/>
		<link refId="11724"/>
		<link refId="111724"/>
		<link refId="7103"/>
		<link refId="104925"/>
		<link refId="4925"/>
		<link refId="120000"/>
		<link refId="1891"/>
		<link refId="101891"/>
		<link refId="20000"/>
		<link refId="102784"/>
		<link refId="2784"/>
		<link refId="101204"/>
		<link refId="104632"/>
		<link refId="11288"/>
		<link refId="3727"/>
		<link refId="103727"/>
		<link refId="111288"/>
		<link refId="1204"/>
		<link refId="4632"/>
		<link refId="101847"/>
		<link refId="108848"/>
		<link refId="1847"/>
		<link refId="8848"/>
		<link refId="103656"/>
		<link refId="3656"/>
		<link refId="104882"/>
		<link refId="107074"/>
		<link refId="4882"/>
		<link refId="7074"/>
		<link refId="3407"/>
		<link refId="7846"/>
		<link refId="9477"/>
		<link refId="103407"/>
		<link refId="107846"/>
		<link refId="109477"/>
		<link refId="2682"/>
		<link refId="102682"/>
		<link refId="351"/>
		<link refId="100351"/>
		<link refId="108699"/>
		<link refId="5867"/>
		<link refId="105867"/>
		<link refId="8699"/>
		<link refId="108085"/>
		<link refId="8085"/>
		<link refId="9469"/>
		<link refId="109469"/>
		<link refId="104936"/>
		<link refId="4936"/>
		<link refId="104058"/>
		<link refId="106179"/>
		<link refId="4058"/>
		<link refId="6179"/>
		<freespeed type="absolute" value="0.0"/>
	</networkChangeEvent>

	<networkChangeEvent startTime="03:23:00">
		<link refId="106070"/>
		<link refId="6070"/>
		<link refId="111841"/>
		<link refId="4783"/>
		<link refId="6556"/>
		<link refId="104783"/>
		<link refId="106556"/>
		<link refId="11841"/>
		<link refId="102753"/>
		<link refId="2753"/>
		<link refId="111976"/>
		<link refId="11976"/>
		<link refId="107373"/>
		<link refId="7373"/>
		<link refId="104241"/>
		<link refId="6538"/>
		<link refId="9222"/>
		<link refId="106538"/>
		<link refId="109222"/>
		<link refId="4241"/>
		<link refId="111681"/>
		<link refId="11681"/>
		<link refId="103994"/>
		<link refId="6809"/>
		<link refId="106809"/>
		<link refId="3994"/>
		<link refId="111640"/>
		<link refId="6845"/>
		<link refId="106845"/>
		<link refId="11640"/>
		<link refId="10665"/>
		<link refId="106855"/>
		<link refId="110665"/>
		<link refId="6855"/>
		<link refId="104456"/>
		<link refId="4456"/>
		<link refId="111240"/>
		<link refId="11240"/>
		<link refId="101151"/>
		<link refId="2570"/>
		<link refId="102570"/>
		<link refId="1151"/>
		<link refId="12016"/>
		<link refId="112016"/>
		<freespeed type="absolute" value="0.0"/>
	</networkChangeEvent>

	<networkChangeEvent startTime="03:24:00">
		<link refId="1802"/>
		<link refId="101802"/>
		<link refId="10139"/>
		<link refId="8508"/>
		<link refId="108508"/>
		<link refId="110139"/>
		<link refId="103814"/>
		<link refId="3814"/>
		<link refId="11958"/>
		<link refId="1793"/>
		<link refId="101793"/>
		<link refId="111958"/>
		<link refId="104333"/>
		<link refId="107246"/>
		<link refId="2631"/>
		<link refId="102631"/>
		<link refId="4333"/>
		<link refId="7246"/>
		<link refId="101817"/>
		<link refId="1817"/>
		<link refId="10882"/>
		<link refId="110882"/>
		<link refId="111087"/>
		<link refId="11087"/>
		<link refId="110969"/>
		<link refId="9417"/>
		<link refId="109417"/>
		<link refId="10969"/>
		<freespeed type="absolute" value="0.0"/>
	</networkChangeEvent>

	<networkChangeEvent startTime="03:25:00">
		<link refId="104102"/>
		<link refId="11082"/>
		<link refId="111941"/>
		<link refId="111082"/>
		<link refId="11941"/>
		<link refId="4102"/>
		<link refId="103694"/>
		<link refId="106164"/>
		<link refId="3694"/>
		<link refId="6164"/>
		<link refId="111006"/>
		<link refId="7726"/>
		<link refId="107726"/>
		<link refId="11006"/>
		<link refId="3573"/>
		<link refId="39"/>
		<link refId="100039"/>
		<link refId="103573"/>
		<link refId="12148"/>
		<link refId="112148"/>
		<link refId="106258"/>
		<link refId="1378"/>
		<link refId="101378"/>
		<link refId="6258"/>
		<link refId="110072"/>
		<link refId="10072"/>
		<link refId="101974"/>
		<link refId="107482"/>
		<link refId="1974"/>
		<link refId="7482"/>
		<link refId="1895"/>
		<link refId="101895"/>
		<link refId="2588"/>
		<link refId="42"/>
		<link refId="100042"/>
		<link refId="102588"/>
		<link refId="10656"/>
		<link refId="2183"/>
		<link refId="102183"/>
		<link refId="110656"/>
		<link refId="112278"/>
		<link refId="8342"/>
		<link refId="108342"/>
		<link refId="12278"/>
		<freespeed type="absolute" value="0.0"/>
	</networkChangeEvent>

	<networkChangeEvent startTime="03:26:00">
		<link refId="9162"/>
		<link refId="109162"/>
		<link refId="100256"/>
		<link refId="103706"/>
		<link refId="11536"/>
		<link refId="111536"/>
		<link refId="256"/>
		<link refId="3706"/>
		<link refId="105983"/>
		<link refId="1567"/>
		<link refId="101567"/>
		<link refId="5983"/>
		<link refId="112115"/>
		<link refId="3928"/>
		<link refId="103928"/>
		<link refId="12115"/>
		<link refId="3497"/>
		<link refId="103497"/>
		<link refId="106802"/>
		<link refId="12288"/>
		<link refId="112288"/>
		<link refId="6802"/>
		<link refId="4869"/>
		<link refId="104869"/>
		<link refId="105593"/>
		<link refId="111207"/>
		<link refId="11207"/>
		<link refId="5593"/>
		<link refId="8870"/>
		<link refId="108870"/>
		<link refId="106083"/>
		<link refId="6083"/>
		<link refId="105798"/>
		<link refId="5798"/>
		<link refId="102179"/>
		<link refId="2179"/>
		<link refId="5919"/>
		<link refId="105919"/>
		<link refId="103364"/>
		<link refId="103963"/>
		<link refId="3364"/>
		<link refId="3963"/>
		<link refId="108602"/>
		<link refId="8602"/>
		<link refId="108129"/>
		<link refId="8129"/>
		<link refId="103516"/>
		<link refId="3516"/>
		<link refId="107645"/>
		<link refId="3202"/>
		<link refId="103202"/>
		<link refId="7645"/>
		<freespeed type="absolute" value="0.0"/>
	</networkChangeEvent>

	<networkChangeEvent startTime="03:27:00">
		<link refId="106130"/>
		<link refId="8511"/>
		<link refId="108511"/>
		<link refId="6130"/>
		<link refId="100971"/>
		<link refId="971"/>
		<link refId="102444"/>
		<link refId="2444"/>
		<link refId="105034"/>
		<link refId="5851"/>
		<link refId="105851"/>
		<link refId="5034"/>
		<link refId="10765"/>
		<link refId="7442"/>
		<link refId="107442"/>
		<link refId="110765"/>
		<link refId="105087"/>
		<link refId="5087"/>
		<link refId="5306"/>
		<link refId="105306"/>
		<link refId="107596"/>
		<link refId="7596"/>
		<link refId="1004"/>
		<link refId="105786"/>
		<link refId="101004"/>
		<link refId="5786"/>
		<link refId="107073"/>
		<link refId="5183"/>
		<link refId="105183"/>
		<link refId="7073"/>
		<link refId="106652"/>
		<link refId="6652"/>
		<freespeed type="absolute" value="0.0"/>
	</networkChangeEvent>

	<networkChangeEvent startTime="03:28:00">
		<link refId="101922"/>
		<link refId="145"/>
		<link refId="100145"/>
		<link refId="1922"/>
		<link refId="7426"/>
		<link refId="107426"/>
		<link refId="111650"/>
		<link refId="3699"/>
		<link refId="103699"/>
		<link refId="11650"/>
		<link refId="104252"/>
		<link refId="4252"/>
		<freespeed type="absolute" value="0.0"/>
	</networkChangeEvent>

	<networkChangeEvent startTime="03:29:00">
		<link refId="10767"/>
		<link refId="8162"/>
		<link refId="108162"/>
		<link refId="110767"/>
		<link refId="109535"/>
		<link refId="9520"/>
		<link refId="109520"/>
		<link refId="9535"/>
		<link refId="1583"/>
		<link refId="101583"/>
		<link refId="107818"/>
		<link refId="7818"/>
		<link refId="10009"/>
		<link refId="912"/>
		<link refId="100912"/>
		<link refId="110009"/>
		<freespeed type="absolute" value="0.0"/>
	</networkChangeEvent>

	<networkChangeEvent startTime="03:30:00">
		<link refId="2568"/>
		<link refId="102568"/>
		<link refId="104709"/>
		<link refId="4709"/>
		<link refId="3015"/>
		<link refId="103015"/>
		<link refId="5699"/>
		<link refId="105699"/>
		<link refId="2046"/>
		<link refId="7776"/>
		<link refId="102046"/>
		<link refId="107776"/>
		<link refId="106798"/>
		<link refId="6894"/>
		<link refId="106894"/>
		<link refId="6798"/>
		<link refId="8908"/>
		<link refId="108908"/>
		<freespeed type="absolute" value="0.0"/>
	</networkChangeEvent>

	<networkChangeEvent startTime="03:31:00">
		<link refId="105631"/>
		<link refId="5631"/>
		<link refId="102629"/>
		<link refId="108188"/>
		<link refId="12123"/>
		<link refId="112123"/>
		<link refId="2629"/>
		<link refId="8188"/>
		<link refId="10089"/>
		<link refId="111828"/>
		<link refId="110089"/>
		<link refId="11828"/>
		<link refId="108691"/>
		<link refId="8691"/>
		<link refId="100686"/>
		<link refId="12293"/>
		<link refId="4013"/>
		<link refId="104013"/>
		<link refId="112293"/>
		<link refId="686"/>
		<link refId="11384"/>
		<link refId="111384"/>
		<link refId="103355"/>
		<link refId="4660"/>
		<link refId="7296"/>
		<link refId="104660"/>
		<link refId="107296"/>
		<link refId="3355"/>
		<link refId="7739"/>
		<link refId="107739"/>
		<link refId="9802"/>
		<link refId="109802"/>
		<link refId="108579"/>
		<link refId="9608"/>
		<link refId="109608"/>
		<link refId="8579"/>
		<link refId="110690"/>
		<link refId="10690"/>
		<freespeed type="absolute" value="0.0"/>
	</networkChangeEvent>

	<networkChangeEvent startTime="03:32:00">
		<link refId="6806"/>
		<link refId="9738"/>
		<link refId="106806"/>
		<link refId="109738"/>
		<link refId="100316"/>
		<link refId="1529"/>
		<link refId="5701"/>
		<link refId="101529"/>
		<link refId="105701"/>
		<link refId="316"/>
		<link refId="106169"/>
		<link refId="12219"/>
		<link refId="112219"/>
		<link refId="6169"/>
		<link refId="111723"/>
		<link refId="11723"/>
		<link refId="103888"/>
		<link refId="3888"/>
		<link refId="9275"/>
		<link refId="109275"/>
		<freespeed type="absolute" value="0.0"/>
	</networkChangeEvent>

	<networkChangeEvent startTime="03:33:00">
		<link refId="9982"/>
		<link refId="109982"/>
		<freespeed type="absolute" value="0.0"/>
	</networkChangeEvent>

	<networkChangeEvent startTime="03:34:00">
		<link refId="106315"/>
		<link refId="8077"/>
		<link refId="108077"/>
		<link refId="6315"/>
		<link refId="102273"/>
		<link refId="2273"/>
		<link refId="101933"/>
		<link refId="1690"/>
		<link refId="101690"/>
		<link refId="1933"/>
		<link refId="101630"/>
		<link refId="5142"/>
		<link refId="105142"/>
		<link refId="1630"/>
		<freespeed type="absolute" value="0.0"/>
	</networkChangeEvent>

	<networkChangeEvent startTime="03:35:00">
		<link refId="100224"/>
		<link refId="7486"/>
		<link refId="107486"/>
		<link refId="224"/>
		<link refId="111117"/>
		<link refId="11117"/>
		<freespeed type="absolute" value="0.0"/>
	</networkChangeEvent>

	<networkChangeEvent startTime="03:36:00">
		<link refId="1252"/>
		<link refId="101252"/>
		<freespeed type="absolute" value="0.0"/>
	</networkChangeEvent>

	<networkChangeEvent startTime="03:37:00">
		<link refId="104267"/>
		<link refId="4267"/>
		<link refId="104835"/>
		<link refId="106623"/>
		<link refId="4835"/>
		<link refId="6623"/>
		<link refId="10977"/>
		<link refId="110977"/>
		<link refId="111108"/>
		<link refId="5152"/>
		<link refId="105152"/>
		<link refId="11108"/>
		<freespeed type="absolute" value="0.0"/>
	</networkChangeEvent>

	<networkChangeEvent startTime="03:40:00">
		<link refId="109693"/>
		<link refId="9693"/>
		<link refId="106716"/>
		<link refId="11231"/>
		<link refId="111231"/>
		<link refId="6716"/>
		<link refId="11350"/>
		<link refId="111350"/>
		<link refId="2380"/>
		<link refId="102380"/>
		<link refId="10145"/>
		<link refId="110006"/>
		<link refId="10006"/>
		<link refId="110145"/>
		<link refId="110856"/>
		<link refId="11371"/>
		<link refId="5723"/>
		<link refId="105723"/>
		<link refId="10856"/>
		<link refId="111371"/>
		<link refId="110083"/>
		<link refId="11090"/>
		<link refId="4804"/>
		<link refId="10083"/>
		<link refId="104804"/>
		<link refId="111090"/>
		<link refId="107756"/>
		<link refId="7756"/>
		<link refId="2036"/>
		<link refId="102036"/>
		<freespeed type="absolute" value="0.0"/>
	</networkChangeEvent>

	<networkChangeEvent startTime="03:41:00">
		<link refId="104596"/>
		<link refId="2050"/>
		<link refId="102050"/>
		<link refId="4596"/>
		<freespeed type="absolute" value="0.0"/>
	</networkChangeEvent>

	<networkChangeEvent startTime="03:44:00">
		<link refId="2888"/>
		<link refId="102888"/>
		<freespeed type="absolute" value="0.0"/>
	</networkChangeEvent>

	<networkChangeEvent startTime="03:57:00">
		<link refId="11735"/>
		<link refId="111735"/>
		<freespeed type="absolute" value="0.0"/>
	</networkChangeEvent>

	<networkChangeEvent startTime="04:05:00">
		<link refId="101067"/>
		<link refId="2182"/>
		<link refId="102182"/>
		<link refId="1067"/>
		<freespeed type="absolute" value="0.0"/>
	</networkChangeEvent>

	<networkChangeEvent startTime="04:42:00">
		<link refId="9278"/>
		<link refId="109278"/>
		<freespeed type="absolute" value="0.0"/>
	</networkChangeEvent>

	<networkChangeEvent startTime="04:47:00">
		<link refId="103896"/>
		<link refId="7168"/>
		<link refId="107168"/>
		<link refId="3896"/>
		<freespeed type="absolute" value="0.0"/>
	</networkChangeEvent>

</networkChangeEvents>
