<?xml version="1.0" encoding="utf-8"?>
<!DOCTYPE plans SYSTEM "http://www.matsim.org/files/dtd/plans_v4.dtd">

<plans>

<!-- ====================================================================== -->

	<person id="139909">
		<plan selected="yes">
			<act type="h" link="111318" x="651229.5616366948" y="9894187.854965053" start_time="03:00:00" dur="00:00:00" end_time="03:00:00" />
		</plan>

	</person>

<!-- ====================================================================== -->

	<person id="139918">
		<plan selected="yes">
			<act type="h" link="111318" x="651229.5616366948" y="9894187.854965053" start_time="03:00:00" dur="00:00:00" end_time="03:00:00" />
		</plan>

	</person>

<!-- ====================================================================== -->

	<person id="139932">
		<plan selected="yes">
			<act type="h" link="111318" x="651229.5616366948" y="9894187.854965053" start_time="03:00:00" dur="00:00:00" end_time="03:00:00" />
		</plan>

	</person>

<!-- ====================================================================== -->

	<person id="139934">
		<plan selected="yes">
			<act type="h" link="111318" x="651229.5616366948" y="9894187.854965053" start_time="03:00:00" dur="00:00:00" end_time="03:00:00" />
		</plan>

	</person>

<!-- ====================================================================== -->

	<person id="139947">
		<plan selected="yes">
			<act type="h" link="111318" x="651229.5616366948" y="9894187.854965053" start_time="03:00:00" dur="00:00:00" end_time="03:00:00" />
		</plan>

	</person>

<!-- ====================================================================== -->

	<person id="139969">
		<plan selected="yes">
			<act type="h" link="111318" x="651229.5616366948" y="9894187.854965053" start_time="03:00:00" dur="00:00:00" end_time="03:00:00" />
		</plan>

	</person>

<!-- ====================================================================== -->

	<person id="139983">
		<plan selected="yes">
			<act type="h" link="111318" x="651229.5616366948" y="9894187.854965053" start_time="03:00:00" dur="00:00:00" end_time="03:00:00" />
		</plan>

	</person>

<!-- ====================================================================== -->

	<person id="139987">
		<plan selected="yes">
			<act type="h" link="111318" x="651229.5616366948" y="9894187.854965053" start_time="03:00:00" dur="00:00:00" end_time="03:00:00" />
		</plan>

	</person>

<!-- ====================================================================== -->

	<person id="139995">
		<plan selected="yes">
			<act type="h" link="111318" x="651229.5616366948" y="9894187.854965053" start_time="03:00:00" dur="00:00:00" end_time="03:00:00" />
		</plan>

	</person>

<!-- ====================================================================== -->

	<person id="139998">
		<plan selected="yes">
			<act type="h" link="111318" x="651229.5616366948" y="9894187.854965053" start_time="03:00:00" dur="00:00:00" end_time="03:00:00" />
		</plan>

	</person>

<!-- ====================================================================== -->

	<person id="140003">
		<plan selected="yes">
			<act type="h" link="111318" x="651229.5616366948" y="9894187.854965053" start_time="03:00:00" dur="00:00:00" end_time="03:00:00" />
		</plan>

	</person>

<!-- ====================================================================== -->

	<person id="140005">
		<plan selected="yes">
			<act type="h" link="111318" x="651229.5616366948" y="9894187.854965053" start_time="03:00:00" dur="00:00:00" end_time="03:00:00" />
		</plan>

	</person>

<!-- ====================================================================== -->

	<person id="140020">
		<plan selected="yes">
			<act type="h" link="11318" x="651229.5616366948" y="9894187.854965053" start_time="03:00:00" dur="00:00:00" end_time="03:00:00" />
		</plan>

	</person>

<!-- ====================================================================== -->

	<person id="140022">
		<plan selected="yes">
			<act type="h" link="11318" x="651229.5616366948" y="9894187.854965053" start_time="03:00:00" dur="00:00:00" end_time="03:00:00" />
		</plan>

	</person>

<!-- ====================================================================== -->

	<person id="140040">
		<plan selected="yes">
			<act type="h" link="11318" x="651229.5616366948" y="9894187.854965053" start_time="03:00:00" dur="00:00:00" end_time="03:00:00" />
		</plan>

	</person>

<!-- ====================================================================== -->

	<person id="140041">
		<plan selected="yes">
			<act type="h" link="11318" x="651229.5616366948" y="9894187.854965053" start_time="03:00:00" dur="00:00:00" end_time="03:00:00" />
		</plan>

	</person>

<!-- ====================================================================== -->

	<person id="140047">
		<plan selected="yes">
			<act type="h" link="11318" x="651229.5616366948" y="9894187.854965053" start_time="03:00:00" dur="00:00:00" end_time="03:00:00" />
		</plan>

	</person>

<!-- ====================================================================== -->

	<person id="140048">
		<plan selected="yes">
			<act type="h" link="11318" x="651229.5616366948" y="9894187.854965053" start_time="03:00:00" dur="00:00:00" end_time="03:00:00" />
		</plan>

	</person>

<!-- ====================================================================== -->

	<person id="140062">
		<plan selected="yes">
			<act type="h" link="11318" x="651229.5616366948" y="9894187.854965053" start_time="03:00:00" dur="00:00:00" end_time="03:00:00" />
		</plan>

	</person>

<!-- ====================================================================== -->

	<person id="140063">
		<plan selected="yes">
			<act type="h" link="11318" x="651229.5616366948" y="9894187.854965053" start_time="03:00:00" dur="00:00:00" end_time="03:00:00" />
		</plan>

	</person>

<!-- ====================================================================== -->

	<person id="140084">
		<plan selected="yes">
			<act type="h" link="11318" x="651229.5616366948" y="9894187.854965053" start_time="03:00:00" dur="00:00:00" end_time="03:00:00" />
		</plan>

	</person>

<!-- ====================================================================== -->

	<person id="140096">
		<plan selected="yes">
			<act type="h" link="11318" x="651229.5616366948" y="9894187.854965053" start_time="03:00:00" dur="00:00:00" end_time="03:00:00" />
		</plan>

	</person>

<!-- ====================================================================== -->

	<person id="140101">
		<plan selected="yes">
			<act type="h" link="11318" x="651229.5616366948" y="9894187.854965053" start_time="03:00:00" dur="00:00:00" end_time="03:00:00" />
		</plan>

	</person>

<!-- ====================================================================== -->

	<person id="140105">
		<plan selected="yes">
			<act type="h" link="11318" x="651229.5616366948" y="9894187.854965053" start_time="03:00:00" dur="00:00:00" end_time="03:00:00" />
		</plan>

	</person>

<!-- ====================================================================== -->

	<person id="140109">
		<plan selected="yes">
			<act type="h" link="11318" x="651229.5616366948" y="9894187.854965053" start_time="03:00:00" dur="00:00:00" end_time="03:00:00" />
		</plan>

	</person>

<!-- ====================================================================== -->

	<person id="140123">
		<plan selected="yes">
			<act type="h" link="111162" x="651242.1353085142" y="9894059.677653667" start_time="03:00:00" dur="00:00:00" end_time="03:00:00" />
		</plan>

	</person>

<!-- ====================================================================== -->

	<person id="140147">
		<plan selected="yes">
			<act type="h" link="111162" x="651242.1353085142" y="9894059.677653667" start_time="03:00:00" dur="00:00:00" end_time="03:00:00" />
		</plan>

	</person>

<!-- ====================================================================== -->

	<person id="140174">
		<plan selected="yes">
			<act type="h" link="111162" x="651242.1353085142" y="9894059.677653667" start_time="03:00:00" dur="00:00:00" end_time="03:00:00" />
		</plan>

	</person>

<!-- ====================================================================== -->

	<person id="140175">
		<plan selected="yes">
			<act type="h" link="111162" x="651242.1353085142" y="9894059.677653667" start_time="03:00:00" dur="00:00:00" end_time="03:00:00" />
		</plan>

	</person>

<!-- ====================================================================== -->

	<person id="140202">
		<plan selected="yes">
			<act type="h" link="111162" x="651242.1353085142" y="9894059.677653667" start_time="03:00:00" dur="00:00:00" end_time="03:00:00" />
		</plan>

	</person>

<!-- ====================================================================== -->

	<person id="140203">
		<plan selected="yes">
			<act type="h" link="111162" x="651242.1353085142" y="9894059.677653667" start_time="03:00:00" dur="00:00:00" end_time="03:00:00" />
		</plan>

	</person>

<!-- ====================================================================== -->

	<person id="140219">
		<plan selected="yes">
			<act type="h" link="111162" x="651242.1353085142" y="9894059.677653667" start_time="03:00:00" dur="00:00:00" end_time="03:00:00" />
		</plan>

	</person>

<!-- ====================================================================== -->

	<person id="140222">
		<plan selected="yes">
			<act type="h" link="111162" x="651242.1353085142" y="9894059.677653667" start_time="03:00:00" dur="00:00:00" end_time="03:00:00" />
		</plan>

	</person>

<!-- ====================================================================== -->

	<person id="140229">
		<plan selected="yes">
			<act type="h" link="111162" x="651242.1353085142" y="9894059.677653667" start_time="03:00:00" dur="00:00:00" end_time="03:00:00" />
		</plan>

	</person>

<!-- ====================================================================== -->

	<person id="140287">
		<plan selected="yes">
			<act type="h" link="11162" x="651242.1353085142" y="9894059.677653667" start_time="03:00:00" dur="00:00:00" end_time="03:00:00" />
		</plan>

	</person>

<!-- ====================================================================== -->

	<person id="140303">
		<plan selected="yes">
			<act type="h" link="11162" x="651242.1353085142" y="9894059.677653667" start_time="03:00:00" dur="00:00:00" end_time="03:00:00" />
		</plan>

	</person>

<!-- ====================================================================== -->

	<person id="140325">
		<plan selected="yes">
			<act type="h" link="11162" x="651242.1353085142" y="9894059.677653667" start_time="03:00:00" dur="00:00:00" end_time="03:00:00" />
		</plan>

	</person>

<!-- ====================================================================== -->

	<person id="140326">
		<plan selected="yes">
			<act type="h" link="11162" x="651242.1353085142" y="9894059.677653667" start_time="03:00:00" dur="00:00:00" end_time="03:00:00" />
		</plan>

	</person>

<!-- ====================================================================== -->

	<person id="140347">
		<plan selected="yes">
			<act type="h" link="11162" x="651242.1353085142" y="9894059.677653667" start_time="03:00:00" dur="00:00:00" end_time="03:00:00" />
		</plan>

	</person>

<!-- ====================================================================== -->

	<person id="140354">
		<plan selected="yes">
			<act type="h" link="11162" x="651242.1353085142" y="9894059.677653667" start_time="03:00:00" dur="00:00:00" end_time="03:00:00" />
		</plan>

	</person>

<!-- ====================================================================== -->

	<person id="140548">
		<plan selected="yes">
			<act type="h" link="100267" x="651470.9321647943" y="9894315.736226184" start_time="03:00:00" dur="00:00:00" end_time="03:00:00" />
		</plan>

	</person>

<!-- ====================================================================== -->

	<person id="140550">
		<plan selected="yes">
			<act type="h" link="100267" x="651470.9321647943" y="9894315.736226184" start_time="03:00:00" dur="00:00:00" end_time="03:00:00" />
		</plan>

	</person>

<!-- ====================================================================== -->

	<person id="140553">
		<plan selected="yes">
			<act type="h" link="100267" x="651470.9321647943" y="9894315.736226184" start_time="03:00:00" dur="00:00:00" end_time="03:00:00" />
		</plan>

	</person>

<!-- ====================================================================== -->

	<person id="140565">
		<plan selected="yes">
			<act type="h" link="100267" x="651470.9321647943" y="9894315.736226184" start_time="03:00:00" dur="00:00:00" end_time="03:00:00" />
		</plan>

	</person>

<!-- ====================================================================== -->

	<person id="140592">
		<plan selected="yes">
			<act type="h" link="100267" x="651470.9321647943" y="9894315.736226184" start_time="03:00:00" dur="00:00:00" end_time="03:00:00" />
		</plan>

	</person>

<!-- ====================================================================== -->

	<person id="140597">
		<plan selected="yes">
			<act type="h" link="100267" x="651470.9321647943" y="9894315.736226184" start_time="03:00:00" dur="00:00:00" end_time="03:00:00" />
		</plan>

	</person>

<!-- ====================================================================== -->

	<person id="140600">
		<plan selected="yes">
			<act type="h" link="100267" x="651470.9321647943" y="9894315.736226184" start_time="03:00:00" dur="00:00:00" end_time="03:00:00" />
		</plan>

	</person>

<!-- ====================================================================== -->

	<person id="140606">
		<plan selected="yes">
			<act type="h" link="100267" x="651470.9321647943" y="9894315.736226184" start_time="03:00:00" dur="00:00:00" end_time="03:00:00" />
		</plan>

	</person>

<!-- ====================================================================== -->

	<person id="140609">
		<plan selected="yes">
			<act type="h" link="100267" x="651470.9321647943" y="9894315.736226184" start_time="03:00:00" dur="00:00:00" end_time="03:00:00" />
		</plan>

	</person>

<!-- ====================================================================== -->

	<person id="140615">
		<plan selected="yes">
			<act type="h" link="100267" x="651470.9321647943" y="9894315.736226184" start_time="03:00:00" dur="00:00:00" end_time="03:00:00" />
		</plan>

	</person>

<!-- ====================================================================== -->

	<person id="140636">
		<plan selected="yes">
			<act type="h" link="100267" x="651470.9321647943" y="9894315.736226184" start_time="03:00:00" dur="00:00:00" end_time="03:00:00" />
		</plan>

	</person>

<!-- ====================================================================== -->

	<person id="140657">
		<plan selected="yes">
			<act type="h" link="267" x="651470.9321647943" y="9894315.736226184" start_time="03:00:00" dur="00:00:00" end_time="03:00:00" />
		</plan>

	</person>

<!-- ====================================================================== -->

	<person id="140661">
		<plan selected="yes">
			<act type="h" link="267" x="651470.9321647943" y="9894315.736226184" start_time="03:00:00" dur="00:00:00" end_time="03:00:00" />
		</plan>

	</person>

<!-- ====================================================================== -->

	<person id="140677">
		<plan selected="yes">
			<act type="h" link="267" x="651470.9321647943" y="9894315.736226184" start_time="03:00:00" dur="00:00:00" end_time="03:00:00" />
		</plan>

	</person>

<!-- ====================================================================== -->

	<person id="140678">
		<plan selected="yes">
			<act type="h" link="267" x="651470.9321647943" y="9894315.736226184" start_time="03:00:00" dur="00:00:00" end_time="03:00:00" />
		</plan>

	</person>

<!-- ====================================================================== -->

	<person id="140680">
		<plan selected="yes">
			<act type="h" link="267" x="651470.9321647943" y="9894315.736226184" start_time="03:00:00" dur="00:00:00" end_time="03:00:00" />
		</plan>

	</person>

<!-- ====================================================================== -->

	<person id="140692">
		<plan selected="yes">
			<act type="h" link="267" x="651470.9321647943" y="9894315.736226184" start_time="03:00:00" dur="00:00:00" end_time="03:00:00" />
		</plan>

	</person>

<!-- ====================================================================== -->

	<person id="140730">
		<plan selected="yes">
			<act type="h" link="267" x="651470.9321647943" y="9894315.736226184" start_time="03:00:00" dur="00:00:00" end_time="03:00:00" />
		</plan>

	</person>

<!-- ====================================================================== -->

	<person id="140742">
		<plan selected="yes">
			<act type="h" link="267" x="651470.9321647943" y="9894315.736226184" start_time="03:00:00" dur="00:00:00" end_time="03:00:00" />
		</plan>

	</person>

<!-- ====================================================================== -->

	<person id="140748">
		<plan selected="yes">
			<act type="h" link="267" x="651470.9321647943" y="9894315.736226184" start_time="03:00:00" dur="00:00:00" end_time="03:00:00" />
		</plan>

	</person>

<!-- ====================================================================== -->

	<person id="140755">
		<plan selected="yes">
			<act type="h" link="10940" x="651476.7010246065" y="9894237.101887167" start_time="03:00:00" dur="00:00:00" end_time="03:00:00" />
		</plan>

	</person>

<!-- ====================================================================== -->

	<person id="140779">
		<plan selected="yes">
			<act type="h" link="10940" x="651476.7010246065" y="9894237.101887167" start_time="03:00:00" dur="00:00:00" end_time="03:00:00" />
		</plan>

	</person>

<!-- ====================================================================== -->

	<person id="140786">
		<plan selected="yes">
			<act type="h" link="10940" x="651476.7010246065" y="9894237.101887167" start_time="03:00:00" dur="00:00:00" end_time="03:00:00" />
		</plan>

	</person>

<!-- ====================================================================== -->

	<person id="140791">
		<plan selected="yes">
			<act type="h" link="10940" x="651476.7010246065" y="9894237.101887167" start_time="03:00:00" dur="00:00:00" end_time="03:00:00" />
		</plan>

	</person>

<!-- ====================================================================== -->

	<person id="140840">
		<plan selected="yes">
			<act type="h" link="110940" x="651476.7010246065" y="9894237.101887167" start_time="03:00:00" dur="00:00:00" end_time="03:00:00" />
		</plan>

	</person>

<!-- ====================================================================== -->

	<person id="140849">
		<plan selected="yes">
			<act type="h" link="110940" x="651476.7010246065" y="9894237.101887167" start_time="03:00:00" dur="00:00:00" end_time="03:00:00" />
		</plan>

	</person>

<!-- ====================================================================== -->

	<person id="140860">
		<plan selected="yes">
			<act type="h" link="110940" x="651476.7010246065" y="9894237.101887167" start_time="03:00:00" dur="00:00:00" end_time="03:00:00" />
		</plan>

	</person>

<!-- ====================================================================== -->

	<person id="140872">
		<plan selected="yes">
			<act type="h" link="110940" x="651476.7010246065" y="9894237.101887167" start_time="03:00:00" dur="00:00:00" end_time="03:00:00" />
		</plan>

	</person>

<!-- ====================================================================== -->

	<person id="140874">
		<plan selected="yes">
			<act type="h" link="110940" x="651476.7010246065" y="9894237.101887167" start_time="03:00:00" dur="00:00:00" end_time="03:00:00" />
		</plan>

	</person>

<!-- ====================================================================== -->

	<person id="140892">
		<plan selected="yes">
			<act type="h" link="10385" x="651280.0929325139" y="9894708.363292217" start_time="03:00:00" dur="00:00:00" end_time="03:00:00" />
		</plan>

	</person>

<!-- ====================================================================== -->

	<person id="140896">
		<plan selected="yes">
			<act type="h" link="10385" x="651280.0929325139" y="9894708.363292217" start_time="03:00:00" dur="00:00:00" end_time="03:00:00" />
		</plan>

	</person>

<!-- ====================================================================== -->

	<person id="140911">
		<plan selected="yes">
			<act type="h" link="10385" x="651280.0929325139" y="9894708.363292217" start_time="03:00:00" dur="00:00:00" end_time="03:00:00" />
		</plan>

	</person>

<!-- ====================================================================== -->

	<person id="140918">
		<plan selected="yes">
			<act type="h" link="10385" x="651280.0929325139" y="9894708.363292217" start_time="03:00:00" dur="00:00:00" end_time="03:00:00" />
		</plan>

	</person>

<!-- ====================================================================== -->

	<person id="140948">
		<plan selected="yes">
			<act type="h" link="10385" x="651280.0929325139" y="9894708.363292217" start_time="03:00:00" dur="00:00:00" end_time="03:00:00" />
		</plan>

	</person>

<!-- ====================================================================== -->

	<person id="140976">
		<plan selected="yes">
			<act type="h" link="10385" x="651280.0929325139" y="9894708.363292217" start_time="03:00:00" dur="00:00:00" end_time="03:00:00" />
		</plan>

	</person>

<!-- ====================================================================== -->

	<person id="140998">
		<plan selected="yes">
			<act type="h" link="10385" x="651280.0929325139" y="9894708.363292217" start_time="03:00:00" dur="00:00:00" end_time="03:00:00" />
		</plan>

	</person>

<!-- ====================================================================== -->

	<person id="141012">
		<plan selected="yes">
			<act type="h" link="10385" x="651280.0929325139" y="9894708.363292217" start_time="03:00:00" dur="00:00:00" end_time="03:00:00" />
		</plan>

	</person>

<!-- ====================================================================== -->

	<person id="141029">
		<plan selected="yes">
			<act type="h" link="10385" x="651280.0929325139" y="9894708.363292217" start_time="03:00:00" dur="00:00:00" end_time="03:00:00" />
		</plan>

	</person>

<!-- ====================================================================== -->

	<person id="141033">
		<plan selected="yes">
			<act type="h" link="10385" x="651280.0929325139" y="9894708.363292217" start_time="03:00:00" dur="00:00:00" end_time="03:00:00" />
		</plan>

	</person>

<!-- ====================================================================== -->

	<person id="141055">
		<plan selected="yes">
			<act type="h" link="110385" x="651280.0929325139" y="9894708.363292217" start_time="03:00:00" dur="00:00:00" end_time="03:00:00" />
		</plan>

	</person>

<!-- ====================================================================== -->

	<person id="141056">
		<plan selected="yes">
			<act type="h" link="110385" x="651280.0929325139" y="9894708.363292217" start_time="03:00:00" dur="00:00:00" end_time="03:00:00" />
		</plan>

	</person>

<!-- ====================================================================== -->

	<person id="141063">
		<plan selected="yes">
			<act type="h" link="110385" x="651280.0929325139" y="9894708.363292217" start_time="03:00:00" dur="00:00:00" end_time="03:00:00" />
		</plan>

	</person>

<!-- ====================================================================== -->

	<person id="141066">
		<plan selected="yes">
			<act type="h" link="110385" x="651280.0929325139" y="9894708.363292217" start_time="03:00:00" dur="00:00:00" end_time="03:00:00" />
		</plan>

	</person>

<!-- ====================================================================== -->

	<person id="141095">
		<plan selected="yes">
			<act type="h" link="110385" x="651280.0929325139" y="9894708.363292217" start_time="03:00:00" dur="00:00:00" end_time="03:00:00" />
		</plan>

	</person>

<!-- ====================================================================== -->

	<person id="141107">
		<plan selected="yes">
			<act type="h" link="110385" x="651280.0929325139" y="9894708.363292217" start_time="03:00:00" dur="00:00:00" end_time="03:00:00" />
		</plan>

	</person>

<!-- ====================================================================== -->

	<person id="141108">
		<plan selected="yes">
			<act type="h" link="110385" x="651280.0929325139" y="9894708.363292217" start_time="03:00:00" dur="00:00:00" end_time="03:00:00" />
		</plan>

	</person>

<!-- ====================================================================== -->

	<person id="141109">
		<plan selected="yes">
			<act type="h" link="110385" x="651280.0929325139" y="9894708.363292217" start_time="03:00:00" dur="00:00:00" end_time="03:00:00" />
		</plan>

	</person>

<!-- ====================================================================== -->

	<person id="141121">
		<plan selected="yes">
			<act type="h" link="110385" x="651280.0929325139" y="9894708.363292217" start_time="03:00:00" dur="00:00:00" end_time="03:00:00" />
		</plan>

	</person>

<!-- ====================================================================== -->

	<person id="141128">
		<plan selected="yes">
			<act type="h" link="110385" x="651280.0929325139" y="9894708.363292217" start_time="03:00:00" dur="00:00:00" end_time="03:00:00" />
		</plan>

	</person>

<!-- ====================================================================== -->

	<person id="141129">
		<plan selected="yes">
			<act type="h" link="110385" x="651280.0929325139" y="9894708.363292217" start_time="03:00:00" dur="00:00:00" end_time="03:00:00" />
		</plan>

	</person>

<!-- ====================================================================== -->

	<person id="141154">
		<plan selected="yes">
			<act type="h" link="110385" x="651280.0929325139" y="9894708.363292217" start_time="03:00:00" dur="00:00:00" end_time="03:00:00" />
		</plan>

	</person>

<!-- ====================================================================== -->

	<person id="141184">
		<plan selected="yes">
			<act type="h" link="110385" x="651280.0929325139" y="9894708.363292217" start_time="03:00:00" dur="00:00:00" end_time="03:00:00" />
		</plan>

	</person>

<!-- ====================================================================== -->

	<person id="141190">
		<plan selected="yes">
			<act type="h" link="110385" x="651280.0929325139" y="9894708.363292217" start_time="03:00:00" dur="00:00:00" end_time="03:00:00" />
		</plan>

	</person>

<!-- ====================================================================== -->

	<person id="141203">
		<plan selected="yes">
			<act type="h" link="105608" x="651285.064865605" y="9894571.279672785" start_time="03:00:00" dur="00:00:00" end_time="03:00:00" />
		</plan>

	</person>

<!-- ====================================================================== -->

	<person id="141204">
		<plan selected="yes">
			<act type="h" link="105608" x="651285.064865605" y="9894571.279672785" start_time="03:00:00" dur="00:00:00" end_time="03:00:00" />
		</plan>

	</person>

<!-- ====================================================================== -->

	<person id="141215">
		<plan selected="yes">
			<act type="h" link="105608" x="651285.064865605" y="9894571.279672785" start_time="03:00:00" dur="00:00:00" end_time="03:00:00" />
		</plan>

	</person>

<!-- ====================================================================== -->

	<person id="141216">
		<plan selected="yes">
			<act type="h" link="105608" x="651285.064865605" y="9894571.279672785" start_time="03:00:00" dur="00:00:00" end_time="03:00:00" />
		</plan>

	</person>

<!-- ====================================================================== -->

	<person id="141219">
		<plan selected="yes">
			<act type="h" link="105608" x="651285.064865605" y="9894571.279672785" start_time="03:00:00" dur="00:00:00" end_time="03:00:00" />
		</plan>

	</person>

<!-- ====================================================================== -->

	<person id="141270">
		<plan selected="yes">
			<act type="h" link="105608" x="651285.064865605" y="9894571.279672785" start_time="03:00:00" dur="00:00:00" end_time="03:00:00" />
		</plan>

	</person>

<!-- ====================================================================== -->

	<person id="141289">
		<plan selected="yes">
			<act type="h" link="105608" x="651285.064865605" y="9894571.279672785" start_time="03:00:00" dur="00:00:00" end_time="03:00:00" />
		</plan>

	</person>

<!-- ====================================================================== -->

	<person id="141291">
		<plan selected="yes">
			<act type="h" link="105608" x="651285.064865605" y="9894571.279672785" start_time="03:00:00" dur="00:00:00" end_time="03:00:00" />
		</plan>

	</person>

<!-- ====================================================================== -->

	<person id="141292">
		<plan selected="yes">
			<act type="h" link="105608" x="651285.064865605" y="9894571.279672785" start_time="03:00:00" dur="00:00:00" end_time="03:00:00" />
		</plan>

	</person>

<!-- ====================================================================== -->

	<person id="141305">
		<plan selected="yes">
			<act type="h" link="5608" x="651285.064865605" y="9894571.279672785" start_time="03:00:00" dur="00:00:00" end_time="03:00:00" />
		</plan>

	</person>

<!-- ====================================================================== -->

	<person id="141318">
		<plan selected="yes">
			<act type="h" link="5608" x="651285.064865605" y="9894571.279672785" start_time="03:00:00" dur="00:00:00" end_time="03:00:00" />
		</plan>

	</person>

<!-- ====================================================================== -->

	<person id="141325">
		<plan selected="yes">
			<act type="h" link="5608" x="651285.064865605" y="9894571.279672785" start_time="03:00:00" dur="00:00:00" end_time="03:00:00" />
		</plan>

	</person>
