<?xml version="1.0" encoding="utf-8"?>
<!DOCTYPE plans SYSTEM "http://www.matsim.org/files/dtd/plans_v4.dtd">

<plans>

<!-- ====================================================================== -->

	<person id="testAgent1" employed="no">
		<plan selected="yes">
			<act type="h" link="link01" x="0" y="0" end_time="00:00:00" />
			<leg mode="car">
			</leg>
			<act type="w" link="link23" x="1500" y="0" />
		</plan>
	</person>

<!-- ====================================================================== -->

<person id="testAgent2" employed="no">
		<plan selected="yes">
			<act type="h" link="link01" x="0" y="0" end_time="00:00:01" />
			<leg mode="car">
			</leg>
			<act type="w" link="link23" x="1500" y="0" />
		</plan>
	</person>

<!-- ====================================================================== -->

<person id="testAgent3" employed="no">
		<plan selected="yes">
			<act type="h" link="link01" x="0" y="0" end_time="00:00:02" />
			<leg mode="car">
			</leg>
			<act type="w" link="link23" x="1500" y="0" />
		</plan>
	</person>

<!-- ====================================================================== -->

<person id="testAgent4" employed="no">
		<plan selected="yes">
			<act type="h" link="link01" x="0" y="0" end_time="00:00:03" />
			<leg mode="car">
			</leg>
			<act type="w" link="link23" x="1500" y="0" />
		</plan>
	</person>

<!-- ====================================================================== -->

<person id="testAgent5" employed="no">
		<plan selected="yes">
			<act type="h" link="link01" x="0" y="0" end_time="00:00:04" />
			<leg mode="car">
			</leg>
			<act type="w" link="link23" x="1500" y="0" />
		</plan>
	</person>

<!-- ====================================================================== -->

<person id="testAgent6" employed="no">
		<plan selected="yes">
			<act type="h" link="link01" x="0" y="0" end_time="00:00:05" />
			<leg mode="car">
			</leg>
			<act type="w" link="link23" x="1500" y="0" />
		</plan>
	</person>

<!-- ====================================================================== -->

<person id="testAgent7" employed="no">
		<plan selected="yes">
			<act type="h" link="link01" x="0" y="0" end_time="00:00:06" />
			<leg mode="car">
			</leg>
			<act type="w" link="link23" x="1500" y="0" />
		</plan>
	</person>

<!-- ====================================================================== -->

<person id="testAgent8" employed="no">
		<plan selected="yes">
			<act type="h" link="link01" x="0" y="0" end_time="00:00:07" />
			<leg mode="car">
			</leg>
			<act type="w" link="link23" x="1500" y="0" />
		</plan>
	</person>

<!-- ====================================================================== -->

<person id="testAgent9" employed="no">
		<plan selected="yes">
			<act type="h" link="link01" x="0" y="0" end_time="00:00:08" />
			<leg mode="car">
			</leg>
			<act type="w" link="link23" x="1500" y="0" />
		</plan>
	</person>

<!-- ====================================================================== -->

<person id="testAgent10" employed="no">
		<plan selected="yes">
			<act type="h" link="link01" x="0" y="0" end_time="00:00:09" />
			<leg mode="car">
			</leg>
			<act type="w" link="link23" x="1500" y="0" />
		</plan>
	</person>

<!-- ====================================================================== -->

<person id="testAgent11" employed="no">
		<plan selected="yes">
			<act type="h" link="link01" x="0" y="0" end_time="00:00:10" />
			<leg mode="car">
			</leg>
			<act type="w" link="link23" x="1500" y="0" />
		</plan>
	</person>

<!-- ====================================================================== -->

<person id="testAgent12" employed="no">
		<plan selected="yes">
			<act type="h" link="link01" x="0" y="0" end_time="00:00:11" />
			<leg mode="car">
			</leg>
			<act type="w" link="link23" x="1500" y="0" />
		</plan>
	</person>

<!-- ====================================================================== -->

<person id="testAgent13" employed="no">
		<plan selected="yes">
			<act type="h" link="link01" x="0" y="0" end_time="00:00:12" />
			<leg mode="car">
			</leg>
			<act type="w" link="link23" x="1500" y="0" />
		</plan>
	</person>

<!-- ====================================================================== -->

<person id="testAgent14" employed="no">
		<plan selected="yes">
			<act type="h" link="link01" x="0" y="0" end_time="00:00:13" />
			<leg mode="car">
			</leg>
			<act type="w" link="link23" x="1500" y="0" />
		</plan>
	</person>

<!-- ====================================================================== -->

<person id="testAgent15" employed="no">
		<plan selected="yes">
			<act type="h" link="link01" x="0" y="0" end_time="00:00:14" />
			<leg mode="car">
			</leg>
			<act type="w" link="link23" x="1500" y="0" />
		</plan>
	</person>

<!-- ====================================================================== -->

<person id="testAgent16" employed="no">
		<plan selected="yes">
			<act type="h" link="link01" x="0" y="0" end_time="00:00:15" />
			<leg mode="car">
			</leg>
			<act type="w" link="link23" x="1500" y="0" />
		</plan>
	</person>

<!-- ====================================================================== -->

<person id="testAgent17" employed="no">
		<plan selected="yes">
			<act type="h" link="link01" x="0" y="0" end_time="00:00:16" />
			<leg mode="car">
			</leg>
			<act type="w" link="link23" x="1500" y="0" />
		</plan>
	</person>

<!-- ====================================================================== -->

<person id="testAgent18" employed="no">
		<plan selected="yes">
			<act type="h" link="link01" x="0" y="0" end_time="00:00:17" />
			<leg mode="car">
			</leg>
			<act type="w" link="link23" x="1500" y="0" />
		</plan>
	</person>

<!-- ====================================================================== -->

<person id="testAgent19" employed="no">
		<plan selected="yes">
			<act type="h" link="link01" x="0" y="0" end_time="00:00:18" />
			<leg mode="car">
			</leg>
			<act type="w" link="link23" x="1500" y="0" />
		</plan>
	</person>

<!-- ====================================================================== -->

<person id="testAgent20" employed="no">
		<plan selected="yes">
			<act type="h" link="link01" x="0" y="0" end_time="00:00:19" />
			<leg mode="car">
			</leg>
			<act type="w" link="link23" x="1500" y="0" />
		</plan>
	</person>

<!-- ====================================================================== -->

</plans>