<?xml version="1.0" encoding="UTF-8"?>
<!DOCTYPE network SYSTEM "http://www.matsim.org/files/dtd/network_v2.dtd">
<network name="test network">

	<attributes>
		<attribute name="coordinateReferenceSystem" class="java.lang.String">Atlantis</attribute>
	</attributes>

	<nodes>
		<!-- upper track nodes -->
		<node id="t1_1" x="-1000" y="0">
		</node>
		<node id="t1_2" x="0" y="0">
		</node>
		<node id="t1_3" x="300" y="0">
		</node>
		<node id="t1_4" x="600" y="0">
		</node>
		<node id="t1_5" x="900" y="0">
		</node>
		<node id="t1_6" x="1200" y="0">
		</node>
		<node id="t1_7" x="1500" y="0">
		</node>
		<node id="t1_8" x="1800" y="0">
		</node>
		<node id="t1_9" x="2100" y="0">
		</node>
		<node id="t1_10" x="2400" y="0">
		</node>
		<node id="t1_11" x="2700" y="0">
		</node>
		<node id="t1_12" x="3000" y="0">
		</node>
		<node id="t1_13" x="3300" y="0">
		</node>
		<node id="t1_14" x="3600" y="0">
		</node>
		<node id="t1_15" x="3900" y="0">
		</node>
		<node id="t1_16" x="4200" y="0">
		</node>
		<node id="t1_17" x="4500" y="0">
		</node>
		<node id="t1_18" x="5500" y="0">
		</node>

		<!-- lower track nodes -->
		<node id="t2_1" x="-1000" y="-300">
		</node>
		<node id="t2_2" x="0" y="-300">
		</node>
		<node id="t2_3" x="900" y="-300">
		</node>
		<node id="t2_4" x="1800" y="-300">
		</node>
		<node id="t2_5" x="2700" y="-300">
		</node>
		<node id="t2_6" x="3600" y="-300">
		</node>
		<node id="t2_7" x="4500" y="-300">
		</node>
		<node id="t2_8" x="5500" y="-300">
		</node>

	</nodes>

	<!-- ====================================================================== -->

	<links>

		<!-- upper track -->
		<link id="t1_1-t1_2" from="t1_1" to="t1_2" length="1000" freespeed="1.44444444444444" capacity="3600.0" permlanes="1" oneway="1" modes="rail">
			<attributes>
				<attribute name="railsimResourceType" class="java.lang.String">fixedBlock</attribute>
				<attribute name="railsimTrainCapacity" class="java.lang.Integer">5</attribute>
			</attributes>
		</link>
		<link id="t1_2-t1_3" from="t1_2" to="t1_3" length="300" freespeed="44.44444444444444" capacity="3600.0" permlanes="1" oneway="1" modes="rail">
			<attributes>
				<attribute name="railsimResourceType" class="java.lang.String">fixedBlock</attribute>
				<attribute name="railsimTrainCapacity" class="java.lang.Integer">1</attribute>
			</attributes>
		</link>
		<link id="t1_3-t1_4" from="t1_3" to="t1_4" length="300" freespeed="44.44444444444444" capacity="3600.0" permlanes="1" oneway="1" modes="rail">
			<attributes>
				<attribute name="railsimResourceType" class="java.lang.String">fixedBlock</attribute>
				<attribute name="railsimTrainCapacity" class="java.lang.Integer">1</attribute>
			</attributes>
		</link>
		<link id="t1_4-t1_5" from="t1_4" to="t1_5" length="300" freespeed="44.44444444444444" capacity="3600.0" permlanes="1" oneway="1" modes="rail">
			<attributes>
				<attribute name="railsimResourceType" class="java.lang.String">fixedBlock</attribute>
				<attribute name="railsimTrainCapacity" class="java.lang.Integer">1</attribute>
			</attributes>
		</link>
		<link id="t1_5-t1_6" from="t1_5" to="t1_6" length="300" freespeed="44.44444444444444" capacity="3600.0" permlanes="1" oneway="1" modes="rail">
			<attributes>
				<attribute name="railsimResourceType" class="java.lang.String">fixedBlock</attribute>
				<attribute name="railsimTrainCapacity" class="java.lang.Integer">1</attribute>
			</attributes>
		</link>
		<link id="t1_6-t1_7" from="t1_6" to="t1_7" length="300" freespeed="44.44444444444444" capacity="3600.0" permlanes="1" oneway="1" modes="rail">
			<attributes>
				<attribute name="railsimResourceType" class="java.lang.String">fixedBlock</attribute>
				<attribute name="railsimTrainCapacity" class="java.lang.Integer">1</attribute>
			</attributes>
		</link>
		<link id="t1_7-t1_8" from="t1_7" to="t1_8" length="300" freespeed="44.44444444444444" capacity="3600.0" permlanes="1" oneway="1" modes="rail">
			<attributes>
				<attribute name="railsimResourceType" class="java.lang.String">fixedBlock</attribute>
				<attribute name="railsimTrainCapacity" class="java.lang.Integer">1</attribute>
			</attributes>
		</link>
		<link id="t1_8-t1_9" from="t1_8" to="t1_9" length="300" freespeed="44.44444444444444" capacity="3600.0" permlanes="1" oneway="1" modes="rail">
			<attributes>
				<attribute name="railsimResourceType" class="java.lang.String">fixedBlock</attribute>
				<attribute name="railsimTrainCapacity" class="java.lang.Integer">1</attribute>
			</attributes>
		</link>
		<link id="t1_9-t1_10" from="t1_9" to="t1_10" length="300" freespeed="44.44444444444444" capacity="3600.0" permlanes="1" oneway="1" modes="rail">
			<attributes>
				<attribute name="railsimResourceType" class="java.lang.String">fixedBlock</attribute>
				<attribute name="railsimTrainCapacity" class="java.lang.Integer">1</attribute>
			</attributes>
		</link>
		<link id="t1_10-t1_11" from="t1_10" to="t1_11" length="300" freespeed="44.44444444444444" capacity="3600.0" permlanes="1" oneway="1" modes="rail">
			<attributes>
				<attribute name="railsimResourceType" class="java.lang.String">fixedBlock</attribute>
				<attribute name="railsimTrainCapacity" class="java.lang.Integer">1</attribute>
			</attributes>
		</link>
		<link id="t1_11-t1_12" from="t1_11" to="t1_12" length="300" freespeed="44.44444444444444" capacity="3600.0" permlanes="1" oneway="1" modes="rail">
			<attributes>
				<attribute name="railsimResourceType" class="java.lang.String">fixedBlock</attribute>
				<attribute name="railsimTrainCapacity" class="java.lang.Integer">1</attribute>
			</attributes>
		</link>
		<link id="t1_12-t1_13" from="t1_12" to="t1_13" length="300" freespeed="44.44444444444444" capacity="3600.0" permlanes="1" oneway="1" modes="rail">
			<attributes>
				<attribute name="railsimResourceType" class="java.lang.String">fixedBlock</attribute>
				<attribute name="railsimTrainCapacity" class="java.lang.Integer">1</attribute>
			</attributes>
		</link>
		<link id="t1_13-t1_14" from="t1_13" to="t1_14" length="300" freespeed="44.44444444444444" capacity="3600.0" permlanes="1" oneway="1" modes="rail">
			<attributes>
				<attribute name="railsimResourceType" class="java.lang.String">fixedBlock</attribute>
				<attribute name="railsimTrainCapacity" class="java.lang.Integer">1</attribute>
			</attributes>
		</link>
		<link id="t1_14-t1_15" from="t1_14" to="t1_15" length="300" freespeed="44.44444444444444" capacity="3600.0" permlanes="1" oneway="1" modes="rail">
			<attributes>
				<attribute name="railsimResourceType" class="java.lang.String">fixedBlock</attribute>
				<attribute name="railsimTrainCapacity" class="java.lang.Integer">1</attribute>
			</attributes>
		</link>
		<link id="t1_15-t1_16" from="t1_15" to="t1_16" length="300" freespeed="44.44444444444444" capacity="3600.0" permlanes="1" oneway="1" modes="rail">
			<attributes>
				<attribute name="railsimResourceType" class="java.lang.String">fixedBlock</attribute>
				<attribute name="railsimTrainCapacity" class="java.lang.Integer">1</attribute>
			</attributes>
		</link>
		<link id="t1_16-t1_17" from="t1_16" to="t1_17" length="300" freespeed="44.44444444444444" capacity="3600.0" permlanes="1" oneway="1" modes="rail">
			<attributes>
				<attribute name="railsimResourceType" class="java.lang.String">fixedBlock</attribute>
				<attribute name="railsimTrainCapacity" class="java.lang.Integer">1</attribute>
			</attributes>
		</link>
		<link id="t1_17-t1_18" from="t1_17" to="t1_18" length="1000" freespeed="1.44444444444444" capacity="3600.0" permlanes="1" oneway="1" modes="rail">
			<attributes>
				<attribute name="railsimResourceType" class="java.lang.String">fixedBlock</attribute>
				<attribute name="railsimTrainCapacity" class="java.lang.Integer">5</attribute>
			</attributes>
		</link>

		<!-- lower track -->
		<link id="t2_1-t2_2" from="t2_1" to="t2_2" length="1000" freespeed="1.44444444444444" capacity="3600.0" permlanes="1" oneway="1" modes="rail">
			<attributes>
				<attribute name="railsimResourceType" class="java.lang.String">movingBlock</attribute>
				<attribute name="railsimTrainCapacity" class="java.lang.Integer">5</attribute>
			</attributes>
		</link>
		<link id="t2_2-t2_3" from="t2_2" to="t2_3" length="900" freespeed="44.44444444444444" capacity="3600.0" permlanes="1" oneway="1" modes="rail">
			<attributes>
				<attribute name="railsimResourceType" class="java.lang.String">movingBlock</attribute>
				<attribute name="railsimTrainCapacity" class="java.lang.Integer">1</attribute>
			</attributes>
		</link>
		<link id="t2_3-t2_4" from="t2_3" to="t2_4" length="900" freespeed="44.44444444444444" capacity="3600.0" permlanes="1" oneway="1" modes="rail">
			<attributes>
				<attribute name="railsimResourceType" class="java.lang.String">movingBlock</attribute>
				<attribute name="railsimTrainCapacity" class="java.lang.Integer">1</attribute>
			</attributes>
		</link>
		<link id="t2_4-t2_5" from="t2_4" to="t2_5" length="900" freespeed="44.44444444444444" capacity="3600.0" permlanes="1" oneway="1" modes="rail">
			<attributes>
				<attribute name="railsimResourceType" class="java.lang.String">movingBlock</attribute>
				<attribute name="railsimTrainCapacity" class="java.lang.Integer">1</attribute>
			</attributes>
		</link>
		<link id="t2_5-t2_6" from="t2_5" to="t2_6" length="900" freespeed="44.44444444444444" capacity="3600.0" permlanes="1" oneway="1" modes="rail">
			<attributes>
				<attribute name="railsimResourceType" class="java.lang.String">movingBlock</attribute>
				<attribute name="railsimTrainCapacity" class="java.lang.Integer">1</attribute>
			</attributes>
		</link>
		<link id="t2_6-t2_7" from="t2_6" to="t2_7" length="900" freespeed="44.44444444444444" capacity="3600.0" permlanes="1" oneway="1" modes="rail">
			<attributes>
				<attribute name="railsimResourceType" class="java.lang.String">movingBlock</attribute>
				<attribute name="railsimTrainCapacity" class="java.lang.Integer">1</attribute>
			</attributes>
		</link>
		<link id="t2_7-t2_8" from="t2_7" to="t2_8" length="1000" freespeed="1.44444444444444" capacity="3600.0" permlanes="1" oneway="1" modes="rail">
			<attributes>
				<attribute name="railsimResourceType" class="java.lang.String">movingBlock</attribute>
				<attribute name="railsimTrainCapacity" class="java.lang.Integer">5</attribute>
			</attributes>
		</link>

	</links>

	<!-- ====================================================================== -->

</network>
