<?xml version="1.0" encoding="UTF-8"?>
<!DOCTYPE plans SYSTEM "http://www.matsim.org/files/dtd/plans_v4.dtd">
<plans>
	<person id="1">
		<plan>
			<act type="h" x="718.90" y="92.74" end_time="07:33:01" />
			<leg mode="car"> </leg>
			<act type="w" x="4419.61" y="670.79" end_time="17:02:01" />
			<leg mode="car"> </leg>
			<act type="h" x="718.90" y="92.74" />
		</plan>
	</person>

	<person id="2">
		<plan>
			<act type="h" x="2609.06" y="401.62" end_time="07:50:01" />
			<leg mode="car"> </leg>
			<act type="w" x="272.02" y="951.68" end_time="15:34:01" />
			<leg mode="car"> </leg>
			<act type="h" x="2609.06" y="401.62" />
		</plan>
	</person>

	<person id="3">
		<plan>
			<act type="h" x="1638.35" y="554.68" end_time="07:45:01" />
			<leg mode="car"> </leg>
			<act type="w" x="936.46" y="904.44" end_time="16:00:01" />
			<leg mode="car"> </leg>
			<act type="h" x="1638.35" y="554.68" />
		</plan>
	</person>

	<person id="4">
		<plan>
			<act type="h" x="3178.83" y="840.20" end_time="07:32:01" />
			<leg mode="car"> </leg>
			<act type="w" x="1616.65" y="654.55" end_time="18:23:01" />
			<leg mode="car"> </leg>
			<act type="h" x="3178.83" y="840.20" />
		</plan>
	</person>

	<person id="5">
		<plan>
			<act type="h" x="1995.95" y="435.03" end_time="07:30:01" />
			<leg mode="car"> </leg>
			<act type="w" x="1549.62" y="564.39" end_time="16:24:01" />
			<leg mode="car"> </leg>
			<act type="h" x="1995.95" y="435.03" />
		</plan>
	</person>

	<person id="6">
		<plan>
			<act type="h" x="2569.37" y="263.25" end_time="07:24:01" />
			<leg mode="car"> </leg>
			<act type="w" x="2575.87" y="448.90" end_time="17:39:01" />
			<leg mode="car"> </leg>
			<act type="h" x="2569.37" y="263.25" />
		</plan>
	</person>

	<person id="7">
		<plan>
			<act type="h" x="4184.62" y="243.18" end_time="07:33:01" />
			<leg mode="car"> </leg>
			<act type="w" x="978.06" y="984.32" end_time="15:43:01" />
			<leg mode="car"> </leg>
			<act type="h" x="4184.62" y="243.18" />
		</plan>
	</person>

	<person id="8">
		<plan>
			<act type="h" x="4477.63" y="124.84" end_time="07:40:01" />
			<leg mode="car"> </leg>
			<act type="w" x="440.92" y="708.54" end_time="16:58:01" />
			<leg mode="car"> </leg>
			<act type="h" x="4477.63" y="124.84" />
		</plan>
	</person>

	<person id="9">
		<plan>
			<act type="h" x="347.50" y="673.95" end_time="07:52:01" />
			<leg mode="car"> </leg>
			<act type="w" x="493.07" y="738.73" end_time="16:17:01" />
			<leg mode="car"> </leg>
			<act type="h" x="347.50" y="673.95" />
		</plan>
	</person>

	<person id="10">
		<plan>
			<act type="h" x="1561.15" y="737.34" end_time="07:12:01" />
			<leg mode="car"> </leg>
			<act type="w" x="304.57" y="574.80" end_time="17:00:01" />
			<leg mode="car"> </leg>
			<act type="h" x="1561.15" y="737.34" />
		</plan>
	</person>

	<person id="11">
		<plan>
			<act type="h" x="4104.24" y="585.78" end_time="07:10:01" />
			<leg mode="car"> </leg>
			<act type="w" x="365.22" y="371.09" end_time="16:45:01" />
			<leg mode="car"> </leg>
			<act type="h" x="4104.24" y="585.78" />
		</plan>
	</person>

	<person id="12">
		<plan>
			<act type="h" x="1622.53" y="476.57" end_time="07:35:01" />
			<leg mode="car"> </leg>
			<act type="w" x="2546.88" y="262.25" end_time="18:36:01" />
			<leg mode="car"> </leg>
			<act type="h" x="1622.53" y="476.57" />
		</plan>
	</person>

	<person id="13">
		<plan>
			<act type="h" x="1578.62" y="408.27" end_time="07:32:01" />
			<leg mode="car"> </leg>
			<act type="w" x="553.65" y="267.81" end_time="17:29:01" />
			<leg mode="car"> </leg>
			<act type="h" x="1578.62" y="408.27" />
		</plan>
	</person>

	<person id="14">
		<plan>
			<act type="h" x="478.82" y="490.16" end_time="07:37:01" />
			<leg mode="car"> </leg>
			<act type="w" x="4585.35" y="909.08" end_time="15:39:01" />
			<leg mode="car"> </leg>
			<act type="h" x="478.82" y="490.16" />
		</plan>
	</person>

	<person id="15">
		<plan>
			<act type="h" x="3466.03" y="565.38" end_time="07:33:01" />
			<leg mode="car"> </leg>
			<act type="w" x="617.87" y="568.73" end_time="18:56:01" />
			<leg mode="car"> </leg>
			<act type="h" x="3466.03" y="565.38" />
		</plan>
	</person>

	<person id="16">
		<plan>
			<act type="h" x="3776.33" y="998.72" end_time="07:27:01" />
			<leg mode="car"> </leg>
			<act type="w" x="4764.94" y="445.14" end_time="17:25:01" />
			<leg mode="car"> </leg>
			<act type="h" x="3776.33" y="998.72" />
		</plan>
	</person>

	<person id="17">
		<plan>
			<act type="h" x="2709.80" y="806.71" end_time="07:13:01" />
			<leg mode="car"> </leg>
			<act type="w" x="1530.46" y="518.68" end_time="16:32:01" />
			<leg mode="car"> </leg>
			<act type="h" x="2709.80" y="806.71" />
		</plan>
	</person>

	<person id="18">
		<plan>
			<act type="h" x="3135.21" y="428.52" end_time="07:20:01" />
			<leg mode="car"> </leg>
			<act type="w" x="373.35" y="648.42" end_time="17:31:01" />
			<leg mode="car"> </leg>
			<act type="h" x="3135.21" y="428.52" />
		</plan>
	</person>

	<person id="19">
		<plan>
			<act type="h" x="5112.68" y="579.78" end_time="07:24:01" />
			<leg mode="car"> </leg>
			<act type="w" x="475.92" y="597.73" end_time="18:01:01" />
			<leg mode="car"> </leg>
			<act type="h" x="5112.68" y="579.78" />
		</plan>
	</person>

	<person id="20">
		<plan>
			<act type="h" x="1597.95" y="506.94" end_time="07:47:01" />
			<leg mode="car"> </leg>
			<act type="w" x="3169.45" y="48.15" end_time="17:58:01" />
			<leg mode="car"> </leg>
			<act type="h" x="1597.95" y="506.94" />
		</plan>
	</person>

	<person id="21">
		<plan>
			<act type="h" x="903.25" y="545.03" end_time="07:32:01" />
			<leg mode="car"> </leg>
			<act type="w" x="5273.78" y="109.13" end_time="17:28:01" />
			<leg mode="car"> </leg>
			<act type="h" x="903.25" y="545.03" />
		</plan>
	</person>

	<person id="22">
		<plan>
			<act type="h" x="519.60" y="416.56" end_time="07:44:01" />
			<leg mode="car"> </leg>
			<act type="w" x="400.04" y="509.79" end_time="17:11:01" />
			<leg mode="car"> </leg>
			<act type="h" x="519.60" y="416.56" />
		</plan>
	</person>

	<person id="23">
		<plan>
			<act type="h" x="251.17" y="269.08" end_time="07:35:01" />
			<leg mode="car"> </leg>
			<act type="w" x="2706.18" y="375.51" end_time="16:48:01" />
			<leg mode="car"> </leg>
			<act type="h" x="251.17" y="269.08" />
		</plan>
	</person>

	<person id="24">
		<plan>
			<act type="h" x="4092.99" y="905.58" end_time="07:14:01" />
			<leg mode="car"> </leg>
			<act type="w" x="554.30" y="293.14" end_time="16:27:01" />
			<leg mode="car"> </leg>
			<act type="h" x="4092.99" y="905.58" />
		</plan>
	</person>

	<person id="25">
		<plan>
			<act type="h" x="6007.67" y="638.73" end_time="07:30:01" />
			<leg mode="car"> </leg>
			<act type="w" x="399.23" y="419.67" end_time="18:03:01" />
			<leg mode="car"> </leg>
			<act type="h" x="6007.67" y="638.73" />
		</plan>
	</person>

	<person id="26">
		<plan>
			<act type="h" x="315.98" y="473.81" end_time="07:08:01" />
			<leg mode="car"> </leg>
			<act type="w" x="1046.30" y="679.95" end_time="17:24:01" />
			<leg mode="car"> </leg>
			<act type="h" x="315.98" y="473.81" />
		</plan>
	</person>

	<person id="27">
		<plan>
			<act type="h" x="1313.00" y="502.74" end_time="08:05:01" />
			<leg mode="car"> </leg>
			<act type="w" x="623.26" y="927.08" end_time="17:45:01" />
			<leg mode="car"> </leg>
			<act type="h" x="1313.00" y="502.74" />
		</plan>
	</person>

	<person id="28">
		<plan>
			<act type="h" x="3230.94" y="553.67" end_time="07:26:01" />
			<leg mode="car"> </leg>
			<act type="w" x="3917.76" y="186.52" end_time="17:23:01" />
			<leg mode="car"> </leg>
			<act type="h" x="3230.94" y="553.67" />
		</plan>
	</person>

	<person id="29">
		<plan>
			<act type="h" x="1382.23" y="577.17" end_time="07:16:01" />
			<leg mode="car"> </leg>
			<act type="w" x="493.53" y="676.09" end_time="16:50:01" />
			<leg mode="car"> </leg>
			<act type="h" x="1382.23" y="577.17" />
		</plan>
	</person>

	<person id="30">
		<plan>
			<act type="h" x="3158.03" y="662.38" end_time="07:49:01" />
			<leg mode="car"> </leg>
			<act type="w" x="747.91" y="531.43" end_time="16:53:01" />
			<leg mode="car"> </leg>
			<act type="h" x="3158.03" y="662.38" />
		</plan>
	</person>

	<person id="31">
		<plan>
			<act type="h" x="1999.98" y="684.04" end_time="07:18:01" />
			<leg mode="car"> </leg>
			<act type="w" x="871.06" y="706.71" end_time="19:03:01" />
			<leg mode="car"> </leg>
			<act type="h" x="1999.98" y="684.04" />
		</plan>
	</person>

	<person id="32">
		<plan>
			<act type="h" x="2664.72" y="149.10" end_time="07:28:01" />
			<leg mode="car"> </leg>
			<act type="w" x="353.76" y="439.45" end_time="18:00:01" />
			<leg mode="car"> </leg>
			<act type="h" x="2664.72" y="149.10" />
		</plan>
	</person>

	<person id="33">
		<plan>
			<act type="h" x="616.10" y="711.62" end_time="07:48:01" />
			<leg mode="car"> </leg>
			<act type="w" x="1311.01" y="346.77" end_time="17:11:01" />
			<leg mode="car"> </leg>
			<act type="h" x="616.10" y="711.62" />
		</plan>
	</person>

	<person id="34">
		<plan>
			<act type="h" x="1642.27" y="369.51" end_time="06:58:01" />
			<leg mode="car"> </leg>
			<act type="w" x="3844.36" y="694.68" end_time="18:10:01" />
			<leg mode="car"> </leg>
			<act type="h" x="1642.27" y="369.51" />
		</plan>
	</person>

	<person id="35">
		<plan>
			<act type="h" x="1355.54" y="165.91" end_time="07:04:01" />
			<leg mode="car"> </leg>
			<act type="w" x="1584.00" y="637.44" end_time="17:15:01" />
			<leg mode="car"> </leg>
			<act type="h" x="1355.54" y="165.91" />
		</plan>
	</person>

	<person id="36">
		<plan>
			<act type="h" x="1677.34" y="371.41" end_time="07:39:01" />
			<leg mode="car"> </leg>
			<act type="w" x="466.35" y="204.74" end_time="17:45:01" />
			<leg mode="car"> </leg>
			<act type="h" x="1677.34" y="371.41" />
		</plan>
	</person>

	<person id="37">
		<plan>
			<act type="h" x="1595.90" y="587.48" end_time="07:43:01" />
			<leg mode="car"> </leg>
			<act type="w" x="454.77" y="367.02" end_time="16:23:01" />
			<leg mode="car"> </leg>
			<act type="h" x="1595.90" y="587.48" />
		</plan>
	</person>

	<person id="38">
		<plan>
			<act type="h" x="2458.63" y="291.58" end_time="07:51:01" />
			<leg mode="car"> </leg>
			<act type="w" x="272.56" y="552.73" end_time="15:55:01" />
			<leg mode="car"> </leg>
			<act type="h" x="2458.63" y="291.58" />
		</plan>
	</person>

	<person id="39">
		<plan>
			<act type="h" x="3267.18" y="558.34" end_time="07:20:01" />
			<leg mode="car"> </leg>
			<act type="w" x="518.89" y="582.48" end_time="17:36:01" />
			<leg mode="car"> </leg>
			<act type="h" x="3267.18" y="558.34" />
		</plan>
	</person>

	<person id="40">
		<plan>
			<act type="h" x="463.65" y="650.56" end_time="07:31:01" />
			<leg mode="car"> </leg>
			<act type="w" x="2052.31" y="206.43" end_time="17:17:01" />
			<leg mode="car"> </leg>
			<act type="h" x="463.65" y="650.56" />
		</plan>
	</person>

	<person id="41">
		<plan>
			<act type="h" x="7447.69" y="381.46" end_time="07:47:01" />
			<leg mode="car"> </leg>
			<act type="w" x="444.13" y="283.30" end_time="17:02:01" />
			<leg mode="car"> </leg>
			<act type="h" x="7447.69" y="381.46" />
		</plan>
	</person>

	<person id="42">
		<plan>
			<act type="h" x="1661.55" y="558.94" end_time="07:16:01" />
			<leg mode="car"> </leg>
			<act type="w" x="840.75" y="260.81" end_time="16:47:01" />
			<leg mode="car"> </leg>
			<act type="h" x="1661.55" y="558.94" />
		</plan>
	</person>

	<person id="43">
		<plan>
			<act type="h" x="625.32" y="516.58" end_time="06:59:01" />
			<leg mode="car"> </leg>
			<act type="w" x="0.69" y="306.18" end_time="15:34:01" />
			<leg mode="car"> </leg>
			<act type="h" x="625.32" y="516.58" />
		</plan>
	</person>

	<person id="44">
		<plan>
			<act type="h" x="4426.08" y="429.96" end_time="07:24:01" />
			<leg mode="car"> </leg>
			<act type="w" x="315.52" y="414.21" end_time="16:25:01" />
			<leg mode="car"> </leg>
			<act type="h" x="4426.08" y="429.96" />
		</plan>
	</person>

	<person id="45">
		<plan>
			<act type="h" x="580.12" y="86.58" end_time="07:40:01" />
			<leg mode="car"> </leg>
			<act type="w" x="601.71" y="360.34" end_time="18:04:01" />
			<leg mode="car"> </leg>
			<act type="h" x="580.12" y="86.58" />
		</plan>
	</person>

	<person id="46">
		<plan>
			<act type="h" x="1405.09" y="685.77" end_time="07:36:01" />
			<leg mode="car"> </leg>
			<act type="w" x="4105.57" y="759.36" end_time="18:19:01" />
			<leg mode="car"> </leg>
			<act type="h" x="1405.09" y="685.77" />
		</plan>
	</person>

	<person id="47">
		<plan>
			<act type="h" x="3727.38" y="589.82" end_time="07:37:01" />
			<leg mode="car"> </leg>
			<act type="w" x="6678.35" y="331.76" end_time="15:03:01" />
			<leg mode="car"> </leg>
			<act type="h" x="3727.38" y="589.82" />
		</plan>
	</person>

	<person id="48">
		<plan>
			<act type="h" x="6166.16" y="327.45" end_time="07:22:01" />
			<leg mode="car"> </leg>
			<act type="w" x="738.70" y="502.68" end_time="17:08:01" />
			<leg mode="car"> </leg>
			<act type="h" x="6166.16" y="327.45" />
		</plan>
	</person>

	<person id="49">
		<plan>
			<act type="h" x="3219.70" y="347.01" end_time="07:20:01" />
			<leg mode="car"> </leg>
			<act type="w" x="2282.24" y="403.10" end_time="16:33:01" />
			<leg mode="car"> </leg>
			<act type="h" x="3219.70" y="347.01" />
		</plan>
	</person>

	<person id="50">
		<plan>
			<act type="h" x="3670.41" y="430.23" end_time="07:27:01" />
			<leg mode="car"> </leg>
			<act type="w" x="4657.43" y="786.21" end_time="16:44:01" />
			<leg mode="car"> </leg>
			<act type="h" x="3670.41" y="430.23" />
		</plan>
	</person>

	<person id="51">
		<plan>
			<act type="h" x="957.85" y="62.29" end_time="07:15:01" />
			<leg mode="car"> </leg>
			<act type="w" x="4838.40" y="177.56" end_time="16:14:01" />
			<leg mode="car"> </leg>
			<act type="h" x="957.85" y="62.29" />
		</plan>
	</person>

	<person id="52">
		<plan>
			<act type="h" x="706.28" y="556.79" end_time="07:33:01" />
			<leg mode="car"> </leg>
			<act type="w" x="324.60" y="602.70" end_time="15:02:01" />
			<leg mode="car"> </leg>
			<act type="h" x="706.28" y="556.79" />
		</plan>
	</person>

	<person id="53">
		<plan>
			<act type="h" x="2276.28" y="452.82" end_time="07:46:01" />
			<leg mode="car"> </leg>
			<act type="w" x="4883.76" y="736.36" end_time="14:57:01" />
			<leg mode="car"> </leg>
			<act type="h" x="2276.28" y="452.82" />
		</plan>
	</person>

	<person id="54">
		<plan>
			<act type="h" x="818.17" y="972.14" end_time="07:07:01" />
			<leg mode="car"> </leg>
			<act type="w" x="1285.92" y="582.47" end_time="19:22:01" />
			<leg mode="car"> </leg>
			<act type="h" x="818.17" y="972.14" />
		</plan>
	</person>

	<person id="55">
		<plan>
			<act type="h" x="1505.88" y="255.25" end_time="07:30:01" />
			<leg mode="car"> </leg>
			<act type="w" x="1322.16" y="519.73" end_time="17:34:01" />
			<leg mode="car"> </leg>
			<act type="h" x="1505.88" y="255.25" />
		</plan>
	</person>

	<person id="56">
		<plan>
			<act type="h" x="6836.21" y="815.68" end_time="07:45:01" />
			<leg mode="car"> </leg>
			<act type="w" x="1332.50" y="599.49" end_time="18:45:01" />
			<leg mode="car"> </leg>
			<act type="h" x="6836.21" y="815.68" />
		</plan>
	</person>

	<person id="57">
		<plan>
			<act type="h" x="1503.18" y="799.66" end_time="07:28:01" />
			<leg mode="car"> </leg>
			<act type="w" x="7360.09" y="453.14" end_time="15:20:01" />
			<leg mode="car"> </leg>
			<act type="h" x="1503.18" y="799.66" />
		</plan>
	</person>

	<person id="58">
		<plan>
			<act type="h" x="1577.58" y="579.26" end_time="07:46:01" />
			<leg mode="car"> </leg>
			<act type="w" x="3648.96" y="578.38" end_time="16:03:01" />
			<leg mode="car"> </leg>
			<act type="h" x="1577.58" y="579.26" />
		</plan>
	</person>

	<person id="59">
		<plan>
			<act type="h" x="149.33" y="635.37" end_time="07:41:01" />
			<leg mode="car"> </leg>
			<act type="w" x="1517.96" y="512.98" end_time="16:06:01" />
			<leg mode="car"> </leg>
			<act type="h" x="149.33" y="635.37" />
		</plan>
	</person>

	<person id="60">
		<plan>
			<act type="h" x="4298.32" y="193.92" end_time="07:27:01" />
			<leg mode="car"> </leg>
			<act type="w" x="1292.29" y="367.16" end_time="15:13:01" />
			<leg mode="car"> </leg>
			<act type="h" x="4298.32" y="193.92" />
		</plan>
	</person>

	<person id="61">
		<plan>
			<act type="h" x="5378.47" y="437.02" end_time="07:15:01" />
			<leg mode="car"> </leg>
			<act type="w" x="1358.29" y="555.37" end_time="17:02:01" />
			<leg mode="car"> </leg>
			<act type="h" x="5378.47" y="437.02" />
		</plan>
	</person>

	<person id="62">
		<plan>
			<act type="h" x="2326.09" y="376.87" end_time="07:40:01" />
			<leg mode="car"> </leg>
			<act type="w" x="2722.31" y="476.33" end_time="15:47:01" />
			<leg mode="car"> </leg>
			<act type="h" x="2326.09" y="376.87" />
		</plan>
	</person>

	<person id="63">
		<plan>
			<act type="h" x="3469.15" y="839.32" end_time="07:31:01" />
			<leg mode="car"> </leg>
			<act type="w" x="663.26" y="360.62" end_time="16:26:01" />
			<leg mode="car"> </leg>
			<act type="h" x="3469.15" y="839.32" />
		</plan>
	</person>

	<person id="64">
		<plan>
			<act type="h" x="1581.54" y="500.38" end_time="07:03:01" />
			<leg mode="car"> </leg>
			<act type="w" x="980.17" y="572.29" end_time="17:27:01" />
			<leg mode="car"> </leg>
			<act type="h" x="1581.54" y="500.38" />
		</plan>
	</person>

	<person id="65">
		<plan>
			<act type="h" x="1847.77" y="821.57" end_time="07:46:01" />
			<leg mode="car"> </leg>
			<act type="w" x="3685.80" y="458.34" end_time="17:20:01" />
			<leg mode="car"> </leg>
			<act type="h" x="1847.77" y="821.57" />
		</plan>
	</person>

	<person id="66">
		<plan>
			<act type="h" x="1890.44" y="235.69" end_time="07:07:01" />
			<leg mode="car"> </leg>
			<act type="w" x="1383.78" y="573.27" end_time="16:06:01" />
			<leg mode="car"> </leg>
			<act type="h" x="1890.44" y="235.69" />
		</plan>
	</person>

	<person id="67">
		<plan>
			<act type="h" x="420.12" y="577.24" end_time="07:29:01" />
			<leg mode="car"> </leg>
			<act type="w" x="296.22" y="453.01" end_time="17:49:01" />
			<leg mode="car"> </leg>
			<act type="h" x="420.12" y="577.24" />
		</plan>
	</person>

	<person id="68">
		<plan>
			<act type="h" x="769.41" y="860.75" end_time="07:42:01" />
			<leg mode="car"> </leg>
			<act type="w" x="341.73" y="336.35" end_time="16:10:01" />
			<leg mode="car"> </leg>
			<act type="h" x="769.41" y="860.75" />
		</plan>
	</person>

	<person id="69">
		<plan>
			<act type="h" x="1702.30" y="355.29" end_time="07:26:01" />
			<leg mode="car"> </leg>
			<act type="w" x="391.73" y="266.33" end_time="16:43:01" />
			<leg mode="car"> </leg>
			<act type="h" x="1702.30" y="355.29" />
		</plan>
	</person>

	<person id="70">
		<plan>
			<act type="h" x="1336.68" y="484.55" end_time="07:38:01" />
			<leg mode="car"> </leg>
			<act type="w" x="580.88" y="355.21" end_time="16:37:01" />
			<leg mode="car"> </leg>
			<act type="h" x="1336.68" y="484.55" />
		</plan>
	</person>

	<person id="71">
		<plan>
			<act type="h" x="280.37" y="21.37" end_time="07:16:01" />
			<leg mode="car"> </leg>
			<act type="w" x="439.77" y="322.71" end_time="17:14:01" />
			<leg mode="car"> </leg>
			<act type="h" x="280.37" y="21.37" />
		</plan>
	</person>

	<person id="72">
		<plan>
			<act type="h" x="558.41" y="576.45" end_time="07:19:01" />
			<leg mode="car"> </leg>
			<act type="w" x="155.54" y="237.56" end_time="16:38:01" />
			<leg mode="car"> </leg>
			<act type="h" x="558.41" y="576.45" />
		</plan>
	</person>

	<person id="73">
		<plan>
			<act type="h" x="4277.74" y="718.10" end_time="07:41:01" />
			<leg mode="car"> </leg>
			<act type="w" x="3435.13" y="10.56" end_time="17:04:01" />
			<leg mode="car"> </leg>
			<act type="h" x="4277.74" y="718.10" />
		</plan>
	</person>

	<person id="74">
		<plan>
			<act type="h" x="2432.93" y="700.76" end_time="07:42:01" />
			<leg mode="car"> </leg>
			<act type="w" x="539.46" y="988.59" end_time="15:54:01" />
			<leg mode="car"> </leg>
			<act type="h" x="2432.93" y="700.76" />
		</plan>
	</person>

	<person id="75">
		<plan>
			<act type="h" x="4080.72" y="393.41" end_time="07:11:01" />
			<leg mode="car"> </leg>
			<act type="w" x="1354.40" y="327.64" end_time="17:50:01" />
			<leg mode="car"> </leg>
			<act type="h" x="4080.72" y="393.41" />
		</plan>
	</person>

	<person id="76">
		<plan>
			<act type="h" x="1691.31" y="445.09" end_time="07:35:01" />
			<leg mode="car"> </leg>
			<act type="w" x="470.30" y="624.80" end_time="18:14:01" />
			<leg mode="car"> </leg>
			<act type="h" x="1691.31" y="445.09" />
		</plan>
	</person>

	<person id="77">
		<plan>
			<act type="h" x="1370.60" y="396.92" end_time="07:32:01" />
			<leg mode="car"> </leg>
			<act type="w" x="34.65" y="838.54" end_time="17:27:01" />
			<leg mode="car"> </leg>
			<act type="h" x="1370.60" y="396.92" />
		</plan>
	</person>

	<person id="78">
		<plan>
			<act type="h" x="1505.02" y="658.09" end_time="07:43:01" />
			<leg mode="car"> </leg>
			<act type="w" x="446.47" y="515.32" end_time="17:30:01" />
			<leg mode="car"> </leg>
			<act type="h" x="1505.02" y="658.09" />
		</plan>
	</person>

	<person id="79">
		<plan>
			<act type="h" x="1345.58" y="499.07" end_time="07:34:01" />
			<leg mode="car"> </leg>
			<act type="w" x="1725.10" y="451.63" end_time="17:36:01" />
			<leg mode="car"> </leg>
			<act type="h" x="1345.58" y="499.07" />
		</plan>
	</person>

	<person id="80">
		<plan>
			<act type="h" x="851.68" y="572.69" end_time="07:20:01" />
			<leg mode="car"> </leg>
			<act type="w" x="5579.35" y="319.24" end_time="15:40:01" />
			<leg mode="car"> </leg>
			<act type="h" x="851.68" y="572.69" />
		</plan>
	</person>

	<person id="81">
		<plan>
			<act type="h" x="1383.84" y="688.03" end_time="07:50:01" />
			<leg mode="car"> </leg>
			<act type="w" x="2570.06" y="313.19" end_time="19:10:01" />
			<leg mode="car"> </leg>
			<act type="h" x="1383.84" y="688.03" />
		</plan>
	</person>

	<person id="82">
		<plan>
			<act type="h" x="1444.58" y="424.62" end_time="07:08:01" />
			<leg mode="car"> </leg>
			<act type="w" x="467.22" y="280.04" end_time="16:39:01" />
			<leg mode="car"> </leg>
			<act type="h" x="1444.58" y="424.62" />
		</plan>
	</person>

	<person id="83">
		<plan>
			<act type="h" x="344.34" y="834.20" end_time="07:29:01" />
			<leg mode="car"> </leg>
			<act type="w" x="1570.68" y="480.02" end_time="16:14:01" />
			<leg mode="car"> </leg>
			<act type="h" x="344.34" y="834.20" />
		</plan>
	</person>

	<person id="84">
		<plan>
			<act type="h" x="3213.40" y="521.90" end_time="07:20:01" />
			<leg mode="car"> </leg>
			<act type="w" x="1693.94" y="357.86" end_time="15:29:01" />
			<leg mode="car"> </leg>
			<act type="h" x="3213.40" y="521.90" />
		</plan>
	</person>

	<person id="85">
		<plan>
			<act type="h" x="344.08" y="476.37" end_time="07:41:01" />
			<leg mode="car"> </leg>
			<act type="w" x="608.23" y="710.16" end_time="18:00:01" />
			<leg mode="car"> </leg>
			<act type="h" x="344.08" y="476.37" />
		</plan>
	</person>

	<person id="86">
		<plan>
			<act type="h" x="1522.74" y="254.07" end_time="07:19:01" />
			<leg mode="car"> </leg>
			<act type="w" x="49.17" y="121.39" end_time="16:09:01" />
			<leg mode="car"> </leg>
			<act type="h" x="1522.74" y="254.07" />
		</plan>
	</person>

	<person id="87">
		<plan>
			<act type="h" x="1561.39" y="366.07" end_time="07:30:01" />
			<leg mode="car"> </leg>
			<act type="w" x="1584.07" y="289.43" end_time="16:28:01" />
			<leg mode="car"> </leg>
			<act type="h" x="1561.39" y="366.07" />
		</plan>
	</person>

	<person id="88">
		<plan>
			<act type="h" x="3532.40" y="401.95" end_time="07:18:01" />
			<leg mode="car"> </leg>
			<act type="w" x="573.87" y="302.66" end_time="16:50:01" />
			<leg mode="car"> </leg>
			<act type="h" x="3532.40" y="401.95" />
		</plan>
	</person>

	<person id="89">
		<plan>
			<act type="h" x="1330.96" y="658.59" end_time="07:25:01" />
			<leg mode="car"> </leg>
			<act type="w" x="1428.52" y="344.59" end_time="17:20:01" />
			<leg mode="car"> </leg>
			<act type="h" x="1330.96" y="658.59" />
		</plan>
	</person>

	<person id="90">
		<plan>
			<act type="h" x="3779.84" y="776.61" end_time="07:41:01" />
			<leg mode="car"> </leg>
			<act type="w" x="571.86" y="722.47" end_time="18:00:01" />
			<leg mode="car"> </leg>
			<act type="h" x="3779.84" y="776.61" />
		</plan>
	</person>

	<person id="91">
		<plan>
			<act type="h" x="399.38" y="499.93" end_time="07:29:01" />
			<leg mode="car"> </leg>
			<act type="w" x="1696.39" y="395.49" end_time="18:48:01" />
			<leg mode="car"> </leg>
			<act type="h" x="399.38" y="499.93" />
		</plan>
	</person>

	<person id="92">
		<plan>
			<act type="h" x="1649.34" y="133.25" end_time="08:07:01" />
			<leg mode="car"> </leg>
			<act type="w" x="1331.33" y="466.86" end_time="16:14:01" />
			<leg mode="car"> </leg>
			<act type="h" x="1649.34" y="133.25" />
		</plan>
	</person>

	<person id="93">
		<plan>
			<act type="h" x="1527.33" y="675.40" end_time="07:33:01" />
			<leg mode="car"> </leg>
			<act type="w" x="6678.35" y="331.76" end_time="16:12:01" />
			<leg mode="car"> </leg>
			<act type="h" x="1527.33" y="675.40" />
		</plan>
	</person>

	<person id="94">
		<plan>
			<act type="h" x="741.18" y="479.73" end_time="07:53:01" />
			<leg mode="car"> </leg>
			<act type="w" x="260.16" y="565.71" end_time="18:23:01" />
			<leg mode="car"> </leg>
			<act type="h" x="741.18" y="479.73" />
		</plan>
	</person>

	<person id="95">
		<plan>
			<act type="h" x="1390.94" y="942.15" end_time="07:53:01" />
			<leg mode="car"> </leg>
			<act type="w" x="4605.86" y="529.97" end_time="15:34:01" />
			<leg mode="car"> </leg>
			<act type="h" x="1390.94" y="942.15" />
		</plan>
	</person>

	<person id="96">
		<plan>
			<act type="h" x="637.08" y="343.75" end_time="07:24:01" />
			<leg mode="car"> </leg>
			<act type="w" x="5418.77" y="317.67" end_time="18:38:01" />
			<leg mode="car"> </leg>
			<act type="h" x="637.08" y="343.75" />
		</plan>
	</person>

	<person id="97">
		<plan>
			<act type="h" x="3337.62" y="412.93" end_time="07:01:01" />
			<leg mode="car"> </leg>
			<act type="w" x="114.67" y="339.88" end_time="16:42:01" />
			<leg mode="car"> </leg>
			<act type="h" x="3337.62" y="412.93" />
		</plan>
	</person>

	<person id="98">
		<plan>
			<act type="h" x="1593.91" y="633.16" end_time="07:22:01" />
			<leg mode="car"> </leg>
			<act type="w" x="6605.08" y="26.13" end_time="15:34:01" />
			<leg mode="car"> </leg>
			<act type="h" x="1593.91" y="633.16" />
		</plan>
	</person>

	<person id="99">
		<plan>
			<act type="h" x="368.59" y="576.42" end_time="07:51:01" />
			<leg mode="car"> </leg>
			<act type="w" x="2332.68" y="382.48" end_time="17:08:01" />
			<leg mode="car"> </leg>
			<act type="h" x="368.59" y="576.42" />
		</plan>
	</person>

	<person id="100">
		<plan>
			<act type="h" x="274.63" y="535.67" end_time="07:27:01" />
			<leg mode="car"> </leg>
			<act type="w" x="1608.65" y="452.95" end_time="17:45:01" />
			<leg mode="car"> </leg>
			<act type="h" x="274.63" y="535.67" />
		</plan>
	</person>

	<person id="101">
		<plan>
			<act type="h" x="3337.23" y="563.18" end_time="07:11:01" />
			<leg mode="car"> </leg>
			<act type="w" x="619.57" y="328.53" end_time="17:14:01" />
			<leg mode="car"> </leg>
			<act type="h" x="3337.23" y="563.18" />
		</plan>
	</person>

	<person id="102">
		<plan>
			<act type="h" x="4739.73" y="558.96" end_time="07:33:01" />
			<leg mode="car"> </leg>
			<act type="w" x="538.64" y="890.84" end_time="17:10:01" />
			<leg mode="car"> </leg>
			<act type="h" x="4739.73" y="558.96" />
		</plan>
	</person>

	<person id="103">
		<plan>
			<act type="h" x="456.83" y="922.30" end_time="07:36:01" />
			<leg mode="car"> </leg>
			<act type="w" x="924.25" y="826.68" end_time="16:04:01" />
			<leg mode="car"> </leg>
			<act type="h" x="456.83" y="922.30" />
		</plan>
	</person>

	<person id="104">
		<plan>
			<act type="h" x="464.41" y="366.33" end_time="07:12:01" />
			<leg mode="car"> </leg>
			<act type="w" x="281.76" y="589.20" end_time="16:55:01" />
			<leg mode="car"> </leg>
			<act type="h" x="464.41" y="366.33" />
		</plan>
	</person>

	<person id="105">
		<plan>
			<act type="h" x="4837.28" y="618.84" end_time="07:28:01" />
			<leg mode="car"> </leg>
			<act type="w" x="1730.47" y="448.33" end_time="16:37:01" />
			<leg mode="car"> </leg>
			<act type="h" x="4837.28" y="618.84" />
		</plan>
	</person>

	<person id="106">
		<plan>
			<act type="h" x="403.82" y="474.82" end_time="07:32:01" />
			<leg mode="car"> </leg>
			<act type="w" x="578.39" y="872.93" end_time="17:26:01" />
			<leg mode="car"> </leg>
			<act type="h" x="403.82" y="474.82" />
		</plan>
	</person>

	<person id="107">
		<plan>
			<act type="h" x="935.54" y="362.18" end_time="07:44:01" />
			<leg mode="car"> </leg>
			<act type="w" x="4395.00" y="740.22" end_time="16:01:01" />
			<leg mode="car"> </leg>
			<act type="h" x="935.54" y="362.18" />
		</plan>
	</person>

	<person id="108">
		<plan>
			<act type="h" x="1464.86" y="254.30" end_time="07:13:01" />
			<leg mode="car"> </leg>
			<act type="w" x="1967.69" y="645.98" end_time="16:44:01" />
			<leg mode="car"> </leg>
			<act type="h" x="1464.86" y="254.30" />
		</plan>
	</person>

	<person id="109">
		<plan>
			<act type="h" x="1327.60" y="389.33" end_time="07:45:01" />
			<leg mode="car"> </leg>
			<act type="w" x="2468.22" y="399.01" end_time="17:08:01" />
			<leg mode="car"> </leg>
			<act type="h" x="1327.60" y="389.33" />
		</plan>
	</person>

	<person id="110">
		<plan>
			<act type="h" x="1292.16" y="581.29" end_time="08:02:01" />
			<leg mode="car"> </leg>
			<act type="w" x="530.45" y="323.60" end_time="17:43:01" />
			<leg mode="car"> </leg>
			<act type="h" x="1292.16" y="581.29" />
		</plan>
	</person>

	<person id="111">
		<plan>
			<act type="h" x="1670.17" y="363.45" end_time="07:27:01" />