<?xml version="1.0" encoding="UTF-8"?>
<!DOCTYPE transitSchedule SYSTEM "http://www.matsim.org/files/dtd/transitSchedule_v2.dtd">

<transitSchedule>

	<transitStops>
		<stopFacility id="stop_link-id_100.0_400.0" x="100.0" y="500.0" linkRefId="link-id_100.0_400.0" isBlocking="false"/>
		<stopFacility id="stop_link-id_100.0_400.0_r" x="400.0" y="500.0" linkRefId="link-id_100.0_400.0_r" isBlocking="false"/>
		<stopFacility id="stop_link-id_1083.0_1483.0" x="1083.0" y="500.0" linkRefId="link-id_1083.0_1483.0" isBlocking="false"/>
		<stopFacility id="stop_link-id_1083.0_1483.0_r" x="1483.0" y="500.0" linkRefId="link-id_1083.0_1483.0_r" isBlocking="false"/>
		<stopFacility id="stop_link-id_1483.0_1893.0" x="1483.0" y="500.0" linkRefId="link-id_1483.0_1893.0" isBlocking="false"/>
		<stopFacility id="stop_link-id_1483.0_1893.0_r" x="1893.0" y="500.0" linkRefId="link-id_1483.0_1893.0_r" isBlocking="false"/>
		<stopFacility id="stop_link-id_1893.0_2343.0" x="1893.0" y="500.0" linkRefId="link-id_1893.0_2343.0" isBlocking="false"/>
		<stopFacility id="stop_link-id_1893.0_2343.0_r" x="2343.0" y="500.0" linkRefId="link-id_1893.0_2343.0_r" isBlocking="false"/>
		<stopFacility id="stop_link-id_2343.0_3343.0" x="2343.0" y="500.0" linkRefId="link-id_2343.0_3343.0" isBlocking="false"/>
		<stopFacility id="stop_link-id_2343.0_3343.0_r" x="3343.0" y="500.0" linkRefId="link-id_2343.0_3343.0_r" isBlocking="false"/>
		<stopFacility id="stop_link-id_3343.0_4443.0" x="3343.0" y="500.0" linkRefId="link-id_3343.0_4443.0" isBlocking="false"/>
		<stopFacility id="stop_link-id_3343.0_4443.0_r" x="4443.0" y="500.0" linkRefId="link-id_3343.0_4443.0_r" isBlocking="false"/>
		<stopFacility id="stop_link-id_400.0_733.0" x="400.0" y="500.0" linkRefId="link-id_400.0_733.0" isBlocking="false"/>
		<stopFacility id="stop_link-id_400.0_733.0_r" x="733.0" y="500.0" linkRefId="link-id_400.0_733.0_r" isBlocking="false"/>
		<stopFacility id="stop_link-id_4443.0_5943.0" x="4443.0" y="500.0" linkRefId="link-id_4443.0_5943.0" isBlocking="false"/>
		<stopFacility id="stop_link-id_4443.0_5943.0_r" x="5943.0" y="500.0" linkRefId="link-id_4443.0_5943.0_r" isBlocking="false"/>
		<stopFacility id="stop_link-id_5943.0_7943.0" x="5943.0" y="500.0" linkRefId="link-id_5943.0_7943.0" isBlocking="false"/>
		<stopFacility id="stop_link-id_5943.0_7943.0_r" x="7943.0" y="500.0" linkRefId="link-id_5943.0_7943.0_r" isBlocking="false"/>
		<stopFacility id="stop_link-id_733.0_1083.0" x="733.0" y="500.0" linkRefId="link-id_733.0_1083.0" isBlocking="false"/>
		<stopFacility id="stop_link-id_733.0_1083.0_r" x="1083.0" y="500.0" linkRefId="link-id_733.0_1083.0_r" isBlocking="false"/>
	</transitStops>
	<transitLine id="Shuttle">
		<transitRoute id="Suburbs">
			<transportMode>train</transportMode>
			<routeProfile>
				<stop refId="stop_link-id_100.0_400.0" arrivalOffset="00:00:00" departureOffset="00:00:00" awaitDeparture="false"/>
				<stop refId="stop_link-id_100.0_400.0_r" arrivalOffset="00:00:00" departureOffset="00:00:00" awaitDeparture="false"/>
				<stop refId="stop_link-id_1083.0_1483.0" arrivalOffset="00:00:00" departureOffset="00:00:00" awaitDeparture="false"/>
				<stop refId="stop_link-id_1083.0_1483.0_r" arrivalOffset="00:00:00" departureOffset="00:00:00" awaitDeparture="false"/>
				<stop refId="stop_link-id_1483.0_1893.0" arrivalOffset="00:00:00" departureOffset="00:00:00" awaitDeparture="false"/>
				<stop refId="stop_link-id_1483.0_1893.0_r" arrivalOffset="00:00:00" departureOffset="00:00:00" awaitDeparture="false"/>
				<stop refId="stop_link-id_1893.0_2343.0" arrivalOffset="00:00:00" departureOffset="00:00:00" awaitDeparture="false"/>
				<stop refId="stop_link-id_1893.0_2343.0_r" arrivalOffset="00:00:00" departureOffset="00:00:00" awaitDeparture="false"/>
				<stop refId="stop_link-id_2343.0_3343.0" arrivalOffset="00:00:00" departureOffset="00:00:00" awaitDeparture="false"/>
				<stop refId="stop_link-id_2343.0_3343.0_r" arrivalOffset="00:00:00" departureOffset="00:00:00" awaitDeparture="false"/>
				<stop refId="stop_link-id_3343.0_4443.0" arrivalOffset="00:00:00" departureOffset="00:00:00" awaitDeparture="false"/>
				<stop refId="stop_link-id_3343.0_4443.0_r" arrivalOffset="00:00:00" departureOffset="00:00:00" awaitDeparture="false"/>
				<stop refId="stop_link-id_400.0_733.0" arrivalOffset="00:00:00" departureOffset="00:00:00" awaitDeparture="false"/>
				<stop refId="stop_link-id_400.0_733.0_r" arrivalOffset="00:00:00" departureOffset="00:00:00" awaitDeparture="false"/>
				<stop refId="stop_link-id_4443.0_5943.0" arrivalOffset="00:00:00" departureOffset="00:00:00" awaitDeparture="false"/>
				<stop refId="stop_link-id_4443.0_5943.0_r" arrivalOffset="00:00:00" departureOffset="00:00:00" awaitDeparture="false"/>
				<stop refId="stop_link-id_5943.0_7943.0" arrivalOffset="00:00:00" departureOffset="00:00:00" awaitDeparture="false"/>
				<stop refId="stop_link-id_5943.0_7943.0_r" arrivalOffset="00:00:00" departureOffset="00:00:00" awaitDeparture="false"/>
				<stop refId="stop_link-id_733.0_1083.0" arrivalOffset="00:00:00" departureOffset="00:00:00" awaitDeparture="false"/>
				<stop refId="stop_link-id_733.0_1083.0_r" arrivalOffset="00:00:00" departureOffset="00:00:00" awaitDeparture="false"/>
			</routeProfile>
			<departures>
				<departure id="departure_1" departureTime="06:00:00" vehicleRefId="tr_2"/>
				<departure id="departure_10" departureTime="07:40:00" vehicleRefId="tr_1"/>
				<departure id="departure_11" departureTime="07:50:00" vehicleRefId="tr_2"/>
				<departure id="departure_12" departureTime="08:00:00" vehicleRefId="tr_1"/>
				<departure id="departure_13" departureTime="08:15:00" vehicleRefId="tr_2"/>
				<departure id="departure_14" departureTime="08:30:00" vehicleRefId="tr_1"/>
				<departure id="departure_15" departureTime="09:00:00" vehicleRefId="tr_2"/>
				<departure id="departure_16" departureTime="09:30:00" vehicleRefId="tr_1"/>
				<departure id="departure_17" departureTime="10:00:00" vehicleRefId="tr_2"/>
				<departure id="departure_18" departureTime="10:30:00" vehicleRefId="tr_1"/>
				<departure id="departure_19" departureTime="11:00:00" vehicleRefId="tr_2"/>
				<departure id="departure_2" departureTime="06:15:00" vehicleRefId="tr_1"/>
				<departure id="departure_20" departureTime="12:00:00" vehicleRefId="tr_1"/>
				<departure id="departure_21" departureTime="13:00:00" vehicleRefId="tr_2"/>
				<departure id="departure_22" departureTime="14:00:00" vehicleRefId="tr_1"/>
				<departure id="departure_23" departureTime="15:00:00" vehicleRefId="tr_2"/>
				<departure id="departure_24" departureTime="15:30:00" vehicleRefId="tr_1"/>
				<departure id="departure_25" departureTime="16:00:00" vehicleRefId="tr_2"/>
				<departure id="departure_26" departureTime="16:15:00" vehicleRefId="tr_1"/>
				<departure id="departure_27" departureTime="16:30:00" vehicleRefId="tr_2"/>
				<departure id="departure_28" departureTime="16:40:00" vehicleRefId="tr_1"/>
				<departure id="departure_29" departureTime="16:50:00" vehicleRefId="tr_2"/>
				<departure id="departure_3" departureTime="06:30:00" vehicleRefId="tr_2"/>
				<departure id="departure_30" departureTime="17:00:00" vehicleRefId="tr_1"/>
				<departure id="departure_31" departureTime="17:10:00" vehicleRefId="tr_2"/>
				<departure id="departure_32" departureTime="17:20:00" vehicleRefId="tr_1"/>
				<departure id="departure_33" departureTime="17:30:00" vehicleRefId="tr_2"/>
				<departure id="departure_34" departureTime="17:40:00" vehicleRefId="tr_1"/>
				<departure id="departure_35" departureTime="17:50:00" vehicleRefId="tr_2"/>
				<departure id="departure_36" departureTime="18:00:00" vehicleRefId="tr_1"/>
				<departure id="departure_37" departureTime="18:10:00" vehicleRefId="tr_2"/>
				<departure id="departure_38" departureTime="18:20:00" vehicleRefId="tr_1"/>
				<departure id="departure_39" departureTime="18:30:00" vehicleRefId="tr_2"/>
				<departure id="departure_4" departureTime="06:40:00" vehicleRefId="tr_1"/>
				<departure id="departure_40" departureTime="18:40:00" vehicleRefId="tr_1"/>
				<departure id="departure_41" departureTime="18:50:00" vehicleRefId="tr_2"/>
				<departure id="departure_42" departureTime="19:00:00" vehicleRefId="tr_1"/>
				<departure id="departure_43" departureTime="19:15:00" vehicleRefId="tr_2"/>
				<departure id="departure_44" departureTime="19:30:00" vehicleRefId="tr_1"/>
				<departure id="departure_45" departureTime="19:45:00" vehicleRefId="tr_2"/>
				<departure id="departure_46" departureTime="20:00:00" vehicleRefId="tr_1"/>
				<departure id="departure_47" departureTime="20:30:00" vehicleRefId="tr_2"/>
				<departure id="departure_48" departureTime="21:00:00" vehicleRefId="tr_1"/>
				<departure id="departure_49" departureTime="22:00:00" vehicleRefId="tr_2"/>
				<departure id="departure_5" departureTime="06:50:00" vehicleRefId="tr_2"/>
				<departure id="departure_50" departureTime="23:00:00" vehicleRefId="tr_1"/>
				<departure id="departure_6" departureTime="07:00:00" vehicleRefId="tr_1"/>
				<departure id="departure_7" departureTime="07:10:00" vehicleRefId="tr_2"/>
				<departure id="departure_8" departureTime="07:20:00" vehicleRefId="tr_1"/>
				<departure id="departure_9" departureTime="07:30:00" vehicleRefId="tr_2"/>
			</departures>
		</transitRoute>
		<transitRoute id="Centre">
			<transportMode>train</transportMode>
			<routeProfile>
				<stop refId="stop_link-id_100.0_400.0" arrivalOffset="00:00:00" departureOffset="00:00:00" awaitDeparture="false"/>
				<stop refId="stop_link-id_100.0_400.0_r" arrivalOffset="00:00:00" departureOffset="00:00:00" awaitDeparture="false"/>
				<stop refId="stop_link-id_1083.0_1483.0" arrivalOffset="00:00:00" departureOffset="00:00:00" awaitDeparture="false"/>
				<stop refId="stop_link-id_1083.0_1483.0_r" arrivalOffset="00:00:00" departureOffset="00:00:00" awaitDeparture="false"/>
				<stop refId="stop_link-id_1483.0_1893.0" arrivalOffset="00:00:00" departureOffset="00:00:00" awaitDeparture="false"/>
				<stop refId="stop_link-id_1483.0_1893.0_r" arrivalOffset="00:00:00" departureOffset="00:00:00" awaitDeparture="false"/>
				<stop refId="stop_link-id_1893.0_2343.0" arrivalOffset="00:00:00" departureOffset="00:00:00" awaitDeparture="false"/>
				<stop refId="stop_link-id_1893.0_2343.0_r" arrivalOffset="00:00:00" departureOffset="00:00:00" awaitDeparture="false"/>
				<stop refId="stop_link-id_2343.0_3343.0" arrivalOffset="00:00:00" departureOffset="00:00:00" awaitDeparture="false"/>
				<stop refId="stop_link-id_2343.0_3343.0_r" arrivalOffset="00:00:00" departureOffset="00:00:00" awaitDeparture="false"/>
				<stop refId="stop_link-id_3343.0_4443.0" arrivalOffset="00:00:00" departureOffset="00:00:00" awaitDeparture="false"/>
				<stop refId="stop_link-id_3343.0_4443.0_r" arrivalOffset="00:00:00" departureOffset="00:00:00" awaitDeparture="false"/>
				<stop refId="stop_link-id_400.0_733.0" arrivalOffset="00:00:00" departureOffset="00:00:00" awaitDeparture="false"/>
				<stop refId="stop_link-id_400.0_733.0_r" arrivalOffset="00:00:00" departureOffset="00:00:00" awaitDeparture="false"/>
				<stop refId="stop_link-id_4443.0_5943.0" arrivalOffset="00:00:00" departureOffset="00:00:00" awaitDeparture="false"/>
				<stop refId="stop_link-id_4443.0_5943.0_r" arrivalOffset="00:00:00" departureOffset="00:00:00" awaitDeparture="false"/>
				<stop refId="stop_link-id_5943.0_7943.0" arrivalOffset="00:00:00" departureOffset="00:00:00" awaitDeparture="false"/>
				<stop refId="stop_link-id_5943.0_7943.0_r" arrivalOffset="00:00:00" departureOffset="00:00:00" awaitDeparture="false"/>
				<stop refId="stop_link-id_733.0_1083.0" arrivalOffset="00:00:00" departureOffset="00:00:00" awaitDeparture="false"/>
				<stop refId="stop_link-id_733.0_1083.0_r" arrivalOffset="00:00:00" departureOffset="00:00:00" awaitDeparture="false"/>
			</routeProfile>
			<departures>
				<departure id="departure_1" departureTime="06:00:00" vehicleRefId="tr_1"/>
				<departure id="departure_10" departureTime="07:40:00" vehicleRefId="tr_1"/>
				<departure id="departure_11" departureTime="07:50:00" vehicleRefId="tr_1"/>
				<departure id="departure_12" departureTime="08:00:00" vehicleRefId="tr_1"/>
				<departure id="departure_13" departureTime="08:15:00" vehicleRefId="tr_1"/>
				<departure id="departure_14" departureTime="08:30:00" vehicleRefId="tr_1"/>
				<departure id="departure_15" departureTime="09:00:00" vehicleRefId="tr_1"/>
				<departure id="departure_16" departureTime="09:30:00" vehicleRefId="tr_1"/>
				<departure id="departure_17" departureTime="10:00:00" vehicleRefId="tr_1"/>
				<departure id="departure_18" departureTime="10:30:00" vehicleRefId="tr_1"/>
				<departure id="departure_19" departureTime="11:00:00" vehicleRefId="tr_1"/>
				<departure id="departure_2" departureTime="06:15:00" vehicleRefId="tr_1"/>
				<departure id="departure_20" departureTime="12:00:00" vehicleRefId="tr_1"/>
				<departure id="departure_21" departureTime="13:00:00" vehicleRefId="tr_1"/>
				<departure id="departure_22" departureTime="14:00:00" vehicleRefId="tr_1"/>
				<departure id="departure_23" departureTime="15:00:00" vehicleRefId="tr_1"/>
				<departure id="departure_24" departureTime="15:30:00" vehicleRefId="tr_1"/>
				<departure id="departure_25" departureTime="16:00:00" vehicleRefId="tr_1"/>
				<departure id="departure_26" departureTime="16:15:00" vehicleRefId="tr_1"/>
				<departure id="departure_27" departureTime="16:30:00" vehicleRefId="tr_1"/>
				<departure id="departure_28" departureTime="16:40:00" vehicleRefId="tr_1"/>
				<departure id="departure_29" departureTime="16:50:00" vehicleRefId="tr_1"/>
				<departure id="departure_3" departureTime="06:30:00" vehicleRefId="tr_1"/>
				<departure id="departure_30" departureTime="17:00:00" vehicleRefId="tr_1"/>
				<departure id="departure_31" departureTime="17:10:00" vehicleRefId="tr_1"/>
				<departure id="departure_32" departureTime="17:20:00" vehicleRefId="tr_1"/>
				<departure id="departure_33" departureTime="17:30:00" vehicleRefId="tr_1"/>
				<departure id="departure_34" departureTime="17:40:00" vehicleRefId="tr_1"/>
				<departure id="departure_35" departureTime="17:50:00" vehicleRefId="tr_1"/>
				<departure id="departure_36" departureTime="18:00:00" vehicleRefId="tr_1"/>
				<departure id="departure_37" departureTime="18:10:00" vehicleRefId="tr_1"/>
				<departure id="departure_38" departureTime="18:20:00" vehicleRefId="tr_1"/>
				<departure id="departure_39" departureTime="18:30:00" vehicleRefId="tr_1"/>
				<departure id="departure_4" departureTime="06:40:00" vehicleRefId="tr_1"/>
				<departure id="departure_40" departureTime="18:40:00" vehicleRefId="tr_1"/>
				<departure id="departure_41" departureTime="18:50:00" vehicleRefId="tr_1"/>
				<departure id="departure_42" departureTime="19:00:00" vehicleRefId="tr_1"/>
				<departure id="departure_43" departureTime="19:15:00" vehicleRefId="tr_1"/>
				<departure id="departure_44" departureTime="19:30:00" vehicleRefId="tr_1"/>
				<departure id="departure_45" departureTime="19:45:00" vehicleRefId="tr_1"/>
				<departure id="departure_46" departureTime="20:00:00" vehicleRefId="tr_1"/>
				<departure id="departure_47" departureTime="20:30:00" vehicleRefId="tr_1"/>
				<departure id="departure_48" departureTime="21:00:00" vehicleRefId="tr_1"/>
				<departure id="departure_49" departureTime="22:00:00" vehicleRefId="tr_1"/>
				<departure id="departure_5" departureTime="06:50:00" vehicleRefId="tr_1"/>
				<departure id="departure_50" departureTime="23:00:00" vehicleRefId="tr_1"/>
				<departure id="departure_6" departureTime="07:00:00" vehicleRefId="tr_1"/>
				<departure id="departure_7" departureTime="07:10:00" vehicleRefId="tr_1"/>
				<departure id="departure_8" departureTime="07:20:00" vehicleRefId="tr_1"/>
				<departure id="departure_9" departureTime="07:30:00" vehicleRefId="tr_1"/>
			</departures>
		</transitRoute>
	</transitLine>
</transitSchedule>