<?xml version="1.0" encoding="utf-8"?>
<!DOCTYPE plans SYSTEM "http://www.matsim.org/files/dtd/plans_v4.dtd">

<plans>

<!-- ====================================================================== -->

	<person id="10000">
		<plan score="271.91873737053925" selected="no">
			<act type="major" link="592927" x="612729.9394944649" y="7089440.7541835895" end_time="08:00:00" />
			<leg mode="car" dep_time="08:00:00" trav_time="00:32:40" arr_time="08:32:40">
				<route dist="57989.626642064904" trav_time="00:32:40">
					14792 1525 1527 1316 1315 10873 1531 14686 12175 1721 1895 1798 1860 2463 2480 10187 2380 2407 1832 9966 1988 2490 2519 14675 1885 12965 1596 1550 1307 1303 1286 1332 1333 1638 10389 1632 1616 1348 1345 13743 1355 1409 1569 1684 16397 16396 2083 12145 3185 16226 4422 12381 13943 
				</route>
			</leg>
			<act type="minor" link="524986" x="569677.5536278229" y="7098013.420053779" end_time="11:29:59" />
			<leg mode="car" dep_time="11:29:59" trav_time="01:00:43" arr_time="12:30:42">
				<route dist="106837.4123024379" trav_time="01:00:43">
					13211 2492 2259 15270 1492 1357 1104 1109 1271 1182 1222 15889 1564 1565 1344 13743 1347 9974 1370 1371 1379 1341 1342 1576 1330 1331 1386 1389 1388 1612 1647 2002 2001 1670 1671 1702 13485 1829 1823 12421 14356 1785 1833 1834 1996 2171 2342 12131 3137 12139 13958 3993 3512 3510 4241 3515 4369 3639 3644 3655 3734 4635 3798 3809 3812 4745 3839 14110 12508 15531 4074 13180 4440 4441 5372 4777 11801 5766 5767 4931 5999 6030 6097 5610 10978 6365 13297 7131 7201 7228 13375 7840 8080 15432 18677 18720 18735 18750 19159 19762 18793 24835 26943 24851 24860 24861 20554 24440 20549 20644 20696 24410 24517 20404 
				</route>
			</leg>
			<act type="minor" link="632934" x="622820.8072522621" y="7123026.228913127" end_time="14:59:58" />
			<leg mode="car" dep_time="14:59:58" trav_time="00:16:46" arr_time="15:16:44">
				<route dist="26933.276479117947" trav_time="00:16:46">
					24258 23479 15189 9580 10590 9115 8861 8853 8848 8813 12259 8823 8812 8569 8546 10431 13348 8288 8219 15038 8012 7575 7576 14841 13665 7665 10041 7500 7572 7471 7472 7327 7303 7423 7355 7134 9849 10076 6502 6337 5851 5795 5559 6111 11470 
				</route>
			</leg>
			<act type="minor" link="1524422" x="606496.7852273922" y="7105438.062825262" end_time="18:29:57" />
			<leg mode="car" dep_time="18:29:57" trav_time="00:12:41" arr_time="18:42:38">
				<route dist="20385.800453030635" trav_time="00:12:41">
					16003 4985 5906 4793 4580 4505 4366 5051 4550 11909 9908 9909 4260 3449 14484 3065 3002 10328 13956 3257 3220 3116 3046 2956 2310 2160 15267 2073 2055 11060 11077 2533 12228 1787 12722 2257 2256 1737 1673 2016 2017 1645 1941 1627 14323 1337 1335 1602 1603 1318 11931 1530 1526 14792 13501 
				</route>
			</leg>
			<act type="major" link="592927" x="612729.9394944649" y="7089440.7541835895" start_time="22:00:00" />
		</plan>

		<plan score="271.9296363150349" selected="yes">
			<act type="major" link="592927" x="612729.9394944649" y="7089440.7541835895" end_time="08:00:00" />
			<leg mode="car" dep_time="08:00:00" trav_time="00:33:09" arr_time="08:33:09">
				<route dist="57968.14888151271" trav_time="00:33:09">
					14792 1525 1527 1316 1315 10873 1531 14686 12175 1721 1895 1798 1860 2463 2480 10187 2380 2407 1832 9966 1988 2490 2519 14675 1885 12965 1596 1550 1307 1303 1286 1332 1333 1638 10389 1632 1616 1348 1345 13743 1355 1409 1684 16397 16396 2083 12145 3185 16226 4422 12381 13943 
				</route>
			</leg>
			<act type="minor" link="524986" x="569677.5536278229" y="7098013.420053779" end_time="11:29:59" />
			<leg mode="car" dep_time="11:29:59" trav_time="01:01:37" arr_time="12:31:36">
				<route dist="107079.56595360793" trav_time="01:01:37">
					13211 2492 2259 15270 1492 1357 1104 1109 1271 1182 1222 15889 1564 1565 1344 13743 1347 9974 1370 1371 1379 1341 1342 1576 1330 1331 1386 1389 1388 1612 1647 2002 2001 1670 1671 1702 13485 1829 1823 12421 14356 1785 1833 1834 1996 2171 2342 12131 3137 12139 13958 3993 3512 3510 4241 3515 10847 3442 4349 4473 4583 3823 14110 12508 15531 4074 13180 5248 5276 4441 5372 4777 11801 5766 5767 4931 5999 6030 6097 5610 10978 6365 13297 7131 7201 7228 13375 7840 8080 15432 18677 18720 18735 18750 19159 19762 18793 24835 26943 24851 24860 24861 20554 24440 20549 20644 20696 24410 24517 20404 
				</route>
			</leg>
			<act type="minor" link="632934" x="622820.8072522621" y="7123026.228913127" end_time="14:59:58" />
			<leg mode="car" dep_time="14:59:58" trav_time="00:17:11" arr_time="15:17:09">
				<route dist="26933.276479117947" trav_time="00:17:11">
					24258 23479 15189 9580 10590 9115 8861 8853 8848 8813 12259 8823 8812 8569 8546 10431 13348 8288 8219 15038 8012 7575 7576 14841 13665 7665 10041 7500 7572 7471 7472 7327 7303 7423 7355 7134 9849 10076 6502 6337 5851 5795 5559 6111 11470 
				</route>
			</leg>
			<act type="minor" link="1524422" x="606496.7852273922" y="7105438.062825262" end_time="18:29:57" />
			<leg mode="car" dep_time="18:29:57" trav_time="00:13:05" arr_time="18:43:02">
				<route dist="20392.311241982366" trav_time="00:13:05">
					16003 4985 5906 4793 4580 4505 4366 5051 4550 11909 9908 9909 4260 3449 14484 3065 3002 10328 13956 3257 3220 3116 3046 2956 2310 2160 15267 2073 2055 11060 11077 2533 12228 1787 12722 1747 2178 10553 1941 1627 14323 1337 1335 1602 1603 1318 11931 1530 1526 14792 13501 
				</route>
			</leg>
			<act type="major" link="592927" x="612729.9394944649" y="7089440.7541835895" start_time="22:00:00" />
		</plan>

		<plan score="-93.09197889276533" selected="no">
			<act type="major" link="592927" x="612729.9394944649" y="7089440.7541835895" start_time="00:00:00" dur="07:33:49" end_time="07:33:49" />
			<leg mode="car" dep_time="07:33:49" trav_time="00:32:40" arr_time="08:06:29">
				<route dist="57989.626642064904" trav_time="00:32:40">
					14792 1525 1527 1316 1315 10873 1531 14686 12175 1721 1895 1798 1860 2463 2480 10187 2380 2407 1832 9966 1988 2490 2519 14675 1885 12965 1596 1550 1307 1303 1286 1332 1333 1638 10389 1632 1616 1348 1345 13743 1355 1409 1569 1684 16397 16396 2083 12145 3185 16226 4422 12381 13943 
				</route>
			</leg>
			<act type="minor" link="524986" x="569677.5536278229" y="7098013.420053779" start_time="08:06:29" dur="00:38:52" end_time="08:45:21" />
			<leg mode="car" dep_time="08:45:21" trav_time="01:00:43" arr_time="09:46:04">
				<route dist="106837.4123024379" trav_time="01:00:43">
					13211 2492 2259 15270 1492 1357 1104 1109 1271 1182 1222 15889 1564 1565 1344 13743 1347 9974 1370 1371 1379 1341 1342 1576 1330 1331 1386 1389 1388 1612 1647 2002 2001 1670 1671 1702 13485 1829 1823 12421 14356 1785 1833 1834 1996 2171 2342 12131 3137 12139 13958 3993 3512 3510 4241 3515 4369 3639 3644 3655 3734 4635 3798 3809 3812 4745 3839 14110 12508 15531 4074 13180 4440 4441 5372 4777 11801 5766 5767 4931 5999 6030 6097 5610 10978 6365 13297 7131 7201 7228 13375 7840 8080 15432 18677 18720 18735 18750 19159 19762 18793 24835 26943 24851 24860 24861 20554 24440 20549 20644 20696 24410 24517 20404 
				</route>
			</leg>
			<act type="minor" link="632934" x="622820.8072522621" y="7123026.228913127" start_time="09:46:04" dur="18:58:10" end_time="28:44:14" />
			<leg mode="car" dep_time="28:44:14" trav_time="00:16:46" arr_time="29:01:00">
				<route dist="26933.276479117947" trav_time="00:16:46">
					24258 23479 15189 9580 10590 9115 8861 8853 8848 8813 12259 8823 8812 8569 8546 10431 13348 8288 8219 15038 8012 7575 7576 14841 13665 7665 10041 7500 7572 7471 7472 7327 7303 7423 7355 7134 9849 10076 6502 6337 5851 5795 5559 6111 11470 
				</route>
			</leg>
			<act type="minor" link="1524422" x="606496.7852273922" y="7105438.062825262" start_time="29:01:00" dur="07:40:57" end_time="36:41:57" />
			<leg mode="car" dep_time="36:41:57" trav_time="00:12:41" arr_time="36:54:38">
				<route dist="20385.800453030635" trav_time="00:12:41">
					16003 4985 5906 4793 4580 4505 4366 5051 4550 11909 9908 9909 4260 3449 14484 3065 3002 10328 13956 3257 3220 3116 3046 2956 2310 2160 15267 2073 2055 11060 11077 2533 12228 1787 12722 2257 2256 1737 1673 2016 2017 1645 1941 1627 14323 1337 1335 1602 1603 1318 11931 1530 1526 14792 13501 
				</route>
			</leg>
			<act type="major" link="592927" x="612729.9394944649" y="7089440.7541835895" start_time="36:54:38" />
		</plan>

	</person>

<!-- ====================================================================== -->

	<person id="10001">
		<plan score="552.493568302319" selected="no">
			<act type="major" link="489732" x="625086.9057217579" y="7115120.425798952" end_time="08:00:00" />
			<leg mode="car" dep_time="08:00:00" trav_time="00:26:17" arr_time="08:26:17">
				<route dist="47057.21442450732" trav_time="00:26:17">
					9062 9063 9118 13779 18754 18758 18776 18779 18778 18780 18781 18786 18787 19555 18762 18764 18793 24835 26943 24851 24887 26843 24905 24951 24952 24967 24374 23996 23357 21209 24175 23359 24643 24128 24993 24997 26445 26164 25222 25242 26644 25219 26118 25333 25245 25341 25342 25348 25349 25350 25408 25409 25411 25412 26234 26235 26376 25453 
				</route>
			</leg>
			<act type="minor" link="695394" x="632405.8199563961" y="7153926.2906695" end_time="09:33:19" />
			<leg mode="car" dep_time="09:33:19" trav_time="00:08:50" arr_time="09:42:09">
				<route dist="14666.67922094166" trav_time="00:08:50">
					25426 25602 25598 27004 25351 25349 25348 25342 25343 25537 25372 26520 21940 21640 24663 21926 23234 21860 21821 21796 21795 23601 21719 21436 23235 
				</route>
			</leg>
			<act type="minor" link="653919" x="620597.8752413731" y="7149305.588223993" end_time="11:06:38" />
			<leg mode="car" dep_time="11:06:38" trav_time="00:02:18" arr_time="11:08:56">
				<route dist="3730.79751694431" trav_time="00:02:18">
					24471 21349 21341 21339 21340 21352 21353 21380 21661 23440 23441 21451 21507 21526 23591 21581 21588 21589 21904 23759 
				</route>
			</leg>
			<act type="minor" link="660503" x="620799.0843692761" y="7151353.011407911" end_time="12:39:57" />
			<leg mode="car" dep_time="12:39:57" trav_time="00:44:38" arr_time="13:24:35">
				<route dist="84206.78927296876" trav_time="00:44:38">
					23234 21860 21821 21796 21795 23601 21719 21436 23235 24471 21349 21341 21339 21340 23752 21348 23695 23010 21385 21386 21300 21301 21376 23769 21185 23911 21089 24409 20931 20982 20763 23792 20873 23926 23438 20739 23032 20551 23720 20353 20317 11965 9650 12571 9092 8991 8455 14705 7910 7803 7613 7666 6709 6514 6515 5464 5519 11795 4392 3671 4253 4078 3323 3324 13460 2363 2119 11070 2438 1566 1458 10197 11866 1111 1112 10872 1234 10715 12176 1208 1060 14161 12539 950 
				</route>
			</leg>
			<act type="minor" link="1455416" x="617165.2479210835" y="7082210.884430467" end_time="14:13:16" />
			<leg mode="car" dep_time="14:13:16" trav_time="00:26:25" arr_time="14:39:41">
				<route dist="48324.90096873776" trav_time="00:26:25">
					1015 1014 878 856 972 870 14803 14513 13170 12988 10884 868 942 943 813 735 695 696 820 601 566 774 14170 410 411 344 316 11103 274 10218 235 
				</route>
			</leg>
			<act type="minor" link="546530" x="591343.5805777054" y="7050384.25857669" end_time="15:46:35" />
			<leg mode="car" dep_time="15:46:35" trav_time="01:13:29" arr_time="17:00:04">
				<route dist="139534.2418949565" trav_time="01:13:29">
					229 216 213 14525 456 14620 509 528 538 10729 620 621 635 443 10210 514 792 11889 644 12759 710 734 940 941 16644 16334 1043 1044 1054 1072 1247 14976 1531 14686 10549 1319 1317 1339 1334 1336 1542 1568 1843 10553 2178 2267 2304 1997 2533 11077 1998 11307 11308 2610 2611 15864 2630 12953 3266 16315 4337 4748 5070 4389 6001 11413 12071 11565 10453 7461 7614 8327 8652 8917 9212 9581 14557 10416 10417 23263 20326 20607 23074 20736 23482 20660 20824 23630 20921 20957 20853 21036 23919 21093 24155 21203 23403 21295 21377 23689 23987 21828 21849 23443 21560 21559 21564 23237 21642 21666 23976 21983 21709 22003 22026 23051 21759 22097 23524 24269 22349 21956 21966 22355 21990 23579 22497 22220 23641 23332 22324 24392 23683 22626 22326 23647 22926 
				</route>
			</leg>
			<act type="minor" link="682159" x="608465.4388764839" y="7165362.124689876" end_time="17:19:54" />
			<leg mode="car" dep_time="17:19:54" trav_time="00:42:27" arr_time="18:02:21">
				<route dist="79423.63454999524" trav_time="00:42:27">
					23647 22331 22327 22625 22329 22621 22622 23092 22600 22601 22550 23322 22496 22139 22020 21977 22368 24503 24504 23138 23139 22285 21808 21743 23980 21957 21949 21948 23192 21671 21674 21649 21607 21888 21881 21882 21521 23662 21802 23527 21375 21376 23769 21185 23911 21089 24409 20931 20982 20763 23792 20873 23926 23438 20739 23032 20551 23720 20353 20317 11965 9600 12254 14003 16556 12582 8638 8181 11164 7881 7285 7005 11769 15753 12631 11778 6275 5613 6135 6060 5973 12364 13903 5024 5011 4943 5889 5785 5627 4640 4619 5550 11424 5452 4488 4487 5145 5144 10819 3951 4924 3798 3769 3667 3666 3961 
				</route>
			</leg>
			<act type="minor" link="1473083" x="604855.0939002972" y="7099501.465358793" end_time="18:53:13" />
			<leg mode="car" dep_time="18:53:13" trav_time="00:11:52" arr_time="19:05:05">
				<route dist="19103.40170706783" trav_time="00:11:52">
					3666 3667 3684 4552 3702 15827 10143 4494 11048 4343 3594 4272 3480 13947 13948 3381 4083 3377 4082 10224 3760 3761 3064 3065 3002 10328 13956 3257 3220 3116 3046 2956 2310 2160 15267 2073 2055 11060 11077 2533 12228 1787 12722 2257 2256 1737 1673 2016 2017 1645 1941 1631 1621 14679 1476 1477 1451 1517 1278 
				</route>
			</leg>
			<act type="minor" link="461203" x="613918.4533098679" y="7087963.7633050075" end_time="20:26:32" />
			<leg mode="car" dep_time="20:26:32" trav_time="00:20:41" arr_time="20:47:13">
				<route dist="36940.18858961119" trav_time="00:20:41">
					1227 15678 13246 1509 1625 1631 1941 10553 2178 2267 2304 1997 2533 11077 1998 11307 11308 2610 2611 15864 2630 12953 3266 16315 4337 4748 5070 4389 6001 6002 5609 5610 10978 6365 13297 7131 7201 7228 13375 7840 7841 8047 8094 13341 8049 8058 8119 8121 13654 8448 8273 8584 8680 8792 8793 8822 9063 9118 
				</route>
			</leg>
			<act type="major" link="489732" x="625086.9057217579" y="7115120.425798952" start_time="22:00:00" />
		</plan>

		<plan score="552.4472187867575" selected="no">
			<act type="major" link="489732" x="625086.9057217579" y="7115120.425798952" end_time="08:00:00" />
			<leg mode="car" dep_time="08:00:00" trav_time="00:26:47" arr_time="08:26:47">
				<route dist="47057.21442450732" trav_time="00:26:47">
					9062 9063 9118 13779 18754 18758 18776 18779 18778 18780 18781 18786 18787 19555 18762 18764 18793 24835 26943 24851 24887 26843 24905 24951 24952 24967 24374 23996 23357 21209 24175 23359 24643 24128 24993 24997 26445 26164 25222 25242 26644 25219 26118 25333 25245 25341 25342 25348 25349 25350 25408 25409 25411 25412 26234 26235 26376 25453 
				</route>
			</leg>
			<act type="minor" link="695394" x="632405.8199563961" y="7153926.2906695" end_time="09:33:19" />
			<leg mode="car" dep_time="09:33:19" trav_time="00:09:02" arr_time="09:42:21">
				<route dist="14666.67922094166" trav_time="00:09:02">
					25426 25602 25598 27004 25351 25349 25348 25342 25343 25537 25372 26520 21940 21640 24663 21926 23234 21860 21821 21796 21795 23601 21719 21436 23235 
				</route>
			</leg>
			<act type="minor" link="653919" x="620597.8752413731" y="7149305.588223993" end_time="11:06:38" />
			<leg mode="car" dep_time="11:06:38" trav_time="00:02:27" arr_time="11:09:05">
				<route dist="3730.79751694431" trav_time="00:02:27">
					24471 21349 21341 21339 21340 21352 21353 21380 21661 23440 23441 21451 21507 21526 23591 21581 21588 21589 21904 23759 
				</route>
			</leg>
			<act type="minor" link="660503" x="620799.0843692761" y="7151353.011407911" end_time="12:39:57" />
			<leg mode="car" dep_time="12:39:57" trav_time="00:45:18" arr_time="13:25:15">
				<route dist="84387.66003826473" trav_time="00:45:18">
					23234 21860 21821 21796 21795 21797 23111 21464 21718 21408 21372 21348 23695 23010 21385 21386 21300 21298 21301 21376 23769 21185 23911 21089 24409 20931 20982 20763 23792 20873 23926 23438 20739 23032 20551 23720 20353 20317 11965 9650 12571 9092 8991 8455 14705 7910 7803 7613 7666 6709 6514 6515 5464 5519 11795 4392 3671 4253 4078 3323 3324 13460 2363 2119 11070 2438 1566 1458 10197 11866 1111 1112 10872 1234 10715 12176 1208 1060 14161 12539 950 
				</route>
			</leg>
			<act type="minor" link="1455416" x="617165.2479210835" y="7082210.884430467" end_time="14:13:16" />
			<leg mode="car" dep_time="14:13:16" trav_time="00:26:39" arr_time="14:39:55">
				<route dist="48324.90096873776" trav_time="00:26:39">
					1015 1014 878 856 972 870 14803 14513 13170 12988 10884 868 942 943 813 735 695 696 820 601 566 774 14170 410 411 344 316 11103 274 10218 235 
				</route>
			</leg>
			<act type="minor" link="546530" x="591343.5805777054" y="7050384.25857669" end_time="15:46:35" />
			<leg mode="car" dep_time="15:46:35" trav_time="01:14:36" arr_time="17:01:11">
				<route dist="139478.39554687406" trav_time="01:14:36">
					229 216 213 14525 456 14620 509 528 538 10729 620 621 635 443 10210 514 792 11889 644 12759 710 734 940 941 16644 16334 1043 1044 1054 1072 1247 14976 1531 14686 10549 1319 1317 1339 1334 1336 1542 1568 1843 10553 15887 1672 1677 1734 2256 2257 1735 1747 2267 2304 1997 1998 11307 11308 2610 2611 15864 2630 12953 3266 16315 4337 4748 5070 4389 6001 11413 12071 11565 10453 7461 7614 8327 8652 8917 9212 9581 14557 10416 10417 23263 20326 20607 23074 20736 23482 20660 20824 23630 20921 20957 20853 21036 23919 21093 24155 21203 23403 21295 21377 23689 23987 21828 21849 23443 21560 21559 21564 23237 21642 21666 23976 21983 21709 22003 22026 23051 21759 22097 23524 22349 21956 21966 22355 21990 23579 22497 22220 23641 23332 22324 24392 23683 22626 22326 23647 22926 
				</route>
			</leg>
			<act type="minor" link="682159" x="608465.4388764839" y="7165362.124689876" end_time="17:19:54" />
			<leg mode="car" dep_time="17:19:54" trav_time="00:43:18" arr_time="18:03:12">
				<route dist="79434.12886797797" trav_time="00:43:18">
					23647 22331 22327 22625 22329 22621 22622 23092 22600 22601 22550 23322 22496 22139 22020 21977 22368 24503 24504 23138 23139 22285 21808 21743 23980 23294 21986 21987 21674 21649 21607 21888 21881 21882 21521 23662 21802 23527 21375 21376 23769 21185 23911 21089 24409 20931 20982 20763 23792 20873 23926 23438 20739 23032 20551 23720 20353 20317 11965 9600 12254 14003 16556 12582 8638 8181 11164 7881 7285 7005 11769 15753 12631 11778 6275 5613 6135 6060 5973 12364 13903 5024 5011 4943 5889 5785 5627 4640 4619 5550 11424 5452 4488 4487 5145 5144 10819 3951 4924 3798 3769 3667 3666 3961 
				</route>
			</leg>
			<act type="minor" link="1473083" x="604855.0939002972" y="7099501.465358793" end_time="18:53:13" />
			<leg mode="car" dep_time="18:53:13" trav_time="00:12:19" arr_time="19:05:32">
				<route dist="19109.912496019562" trav_time="00:12:19">
					3666 3667 3684 4552 3702 15827 10143 4494 11048 4343 3594 4272 3480 13947 13948 3381 4083 3377 4082 10224 3760 3761 3064 3065 3002 10328 13956 3257 3220 3116 3046 2956 2310 2160 15267 2073 2055 11060 11077 2533 12228 1787 12722 1747 2178 10553 1941 1631 1621 14679 1476 1477 1451 1517 1278 
				</route>
			</leg>
			<act type="minor" link="461203" x="613918.4533098679" y="7087963.7633050075" end_time="20:26:32" />
			<leg mode="car" dep_time="20:26:32" trav_time="00:21:07" arr_time="20:47:39">
				<route dist="36860.23362536703" trav_time="00:21:07">
					1227 15678 13246 1509 1625 1631 1941 10553 15887 1672 1677 1734 2256 2257 1735 1747 2267 2304 1997 1998 11307 11308 2610 2611 15864 2630 12953 3266 16315 4337 4748 5070 4389 6001 6002 5609 5610 10978 6365 13297 7131 7201 7228 13375 7840 7841 8044 8047 8094 8205 18679 18707 18692 18685 18683 18704 18909 18910 9142 9063 9118 
				</route>
			</leg>
			<act type="major" link="489732" x="625086.9057217579" y="7115120.425798952" start_time="22:00:00" />
		</plan>

		<plan score="552.493568302319" selected="yes">
			<act type="major" link="489732" x="625086.9057217579" y="7115120.425798952" end_time="08:00:00" />
			<leg mode="car" dep_time="08:00:00" trav_time="00:26:47" arr_time="08:26:47">
				<route dist="47057.21442450732" trav_time="00:26:47">
					9062 9063 9118 13779 18754 18758 18776 18779 18778 18780 18781 18786 18787 19555 18762 18764 18793 24835 26943 24851 24887 26843 24905 24951 24952 24967 24374 23996 23357 21209 24175 23359 24643 24128 24993 24997 26445 26164 25222 25242 26644 25219 26118 25333 25245 25341 25342 25348 25349 25350 25408 25409 25411 25412 26234 26235 26376 25453 
				</route>
			</leg>
			<act type="minor" link="695394" x="632405.8199563961" y="7153926.2906695" end_time="09:33:19" />
			<leg mode="car" dep_time="09:33:19" trav_time="00:09:02" arr_time="09:42:21">
				<route dist="14666.67922094166" trav_time="00:09:02">
					25426 25602 25598 27004 25351 25349 25348 25342 25343 25537 25372 26520 21940 21640 24663 21926 23234 21860 21821 21796 21795 23601 21719 21436 23235 
				</route>
			</leg>
			<act type="minor" link="653919" x="620597.8752413731" y="7149305.588223993" end_time="11:06:38" />
			<leg mode="car" dep_time="11:06:38" trav_time="00:02:27" arr_time="11:09:05">
				<route dist="3730.79751694431" trav_time="00:02:27">
					24471 21349 21341 21339 21340 21352 21353 21380 21661 23440 23441 21451 21507 21526 23591 21581 21588 21589 21904 23759 
				</route>
			</leg>
			<act type="minor" link="660503" x="620799.0843692761" y="7151353.011407911" end_time="12:39:57" />
			<leg mode="car" dep_time="12:39:57" trav_time="00:45:18" arr_time="13:25:15">
				<route dist="84387.66003826473" trav_time="00:45:18">
					23234 21860 21821 21796 21795 21797 23111 21464 21718 21408 21372 21348 23695 23010 21385 21386 21300 21298 21301 21376 23769 21185 23911 21089 24409 20931 20982 20763 23792 20873 23926 23438 20739 23032 20551 23720 20353 20317 11965 9650 12571 9092 8991 8455 14705 7910 7803 7613 7666 6709 6514 6515 5464 5519 11795 4392 3671 4253 4078 3323 3324 13460 2363 2119 11070 2438 1566 1458 10197 11866 1111 1112 10872 1234 10715 12176 1208 1060 14161 12539 950 
				</route>
			</leg>
			<act type="minor" link="1455416" x="617165.2479210835" y="7082210.884430467" end_time="14:13:16" />
			<leg mode="car" dep_time="14:13:16" trav_time="00:26:39" arr_time="14:39:55">
				<route dist="48324.90096873776" trav_time="00:26:39">
					1015 1014 878 856 972 870 14803 14513 13170 12988 10884 868 942 943 813 735 695 696 820 601 566 774 14170 410 411 344 316 11103 274 10218 235 
				</route>
			</leg>
			<act type="minor" link="546530" x="591343.5805777054" y="7050384.25857669" end_time="15:46:35" />
			<leg mode="car" dep_time="15:46:35" trav_time="01:14:36" arr_time="17:01:11">
				<route dist="139478.39554687406" trav_time="01:14:36">
					229 216 213 14525 456 14620 509 528 538 10729 620 621 635 443 10210 514 792 11889 644 12759 710 734 940 941 16644 16334 1043 1044 1054 1072 1247 14976 1531 14686 10549 1319 1317 1339 1334 1336 1542 1568 1843 10553 15887 1672 1677 1734 2256 2257 1735 1747 2267 2304 1997 1998 11307 11308 2610 2611 15864 2630 12953 3266 16315 4337 4748 5070 4389 6001 11413 12071 11565 10453 7461 7614 8327 8652 8917 9212 9581 14557 10416 10417 23263 20326 20607 23074 20736 23482 20660 20824 23630 20921 20957 20853 21036 23919 21093 24155 21203 23403 21295 21377 23689 23987 21828 21849 23443 21560 21559 21564 23237 21642 21666 23976 21983 21709 22003 22026 23051 21759 22097 23524 22349 21956 21966 22355 21990 23579 22497 22220 23641 23332 22324 24392 23683 22626 22326 23647 22926 
				</route>
			</leg>
			<act type="minor" link="682159" x="608465.4388764839" y="7165362.124689876" end_time="17:19:54" />
			<leg mode="car" dep_time="17:19:54" trav_time="00:43:18" arr_time="18:03:12">
				<route dist="79434.12886797797" trav_time="00:43:18">
					23647 22331 22327 22625 22329 22621 22622 23092 22600 22601 22550 23322 22496 22139 22020 21977 22368 24503 24504 23138 23139 22285 21808 21743 23980 23294 21986 21987 21674 21649 21607 21888 21881 21882 21521 23662 21802 23527 21375 21376 23769 21185 23911 21089 24409 20931 20982 20763 23792 20873 23926 23438 20739 23032 20551 23720 20353 20317 11965 9600 12254 14003 16556 12582 8638 8181 11164 7881 7285 7005 11769 15753 12631 11778 6275 5613 6135 6060 5973 12364 13903 5024 5011 4943 5889 5785 5627 4640 4619 5550 11424 5452 4488 4487 5145 5144 10819 3951 4924 3798 3769 3667 3666 3961 
				</route>
			</leg>
			<act type="minor" link="1473083" x="604855.0939002972" y="7099501.465358793" end_time="18:53:13" />
			<leg mode="car" dep_time="18:53:13" trav_time="00:12:19" arr_time="19:05:32">
				<route dist="19109.912496019562" trav_time="00:12:19">
					3666 3667 3684 4552 3702 15827 10143 4494 11048 4343 3594 4272 3480 13947 13948 3381 4083 3377 4082 10224 3760 3761 3064 3065 3002 10328 13956 3257 3220 3116 3046 2956 2310 2160 15267 2073 2055 11060 11077 2533 12228 1787 12722 1747 2178 10553 1941 1631 1621 14679 1476 1477 1451 1517 1278 
				</route>
			</leg>
			<act type="minor" link="461203" x="613918.4533098679" y="7087963.7633050075" end_time="20:26:32" />
			<leg mode="car" dep_time="20:26:32" trav_time="00:21:07" arr_time="20:47:39">
				<route dist="36860.23362536703" trav_time="00:21:07">
					1227 15678 13246 1509 1625 1631 1941 10553 15887 1672 1677 1734 2256 2257 1735 1747 2267 2304 1997 1998 11307 11308 2610 2611 15864 2630 12953 3266 16315 4337 4748 5070 4389 6001 6002 5609 5610 10978 6365 13297 7131 7201 7228 13375 7840 7841 8044 8047 8094 8205 18679 18707 18692 18685 18683 18704 18909 18910 9142 9063 9118 
				</route>
			</leg>
			<act type="major" link="489732" x="625086.9057217579" y="7115120.425798952" start_time="22:00:00" />
		</plan>

	</person>

<!-- ====================================================================== -->

	<person id="10002">
		<plan score="388.204271682176" selected="yes">
			<act type="major" link="486102" x="614124.2522636395" y="7113796.834507047" end_time="08:00:00" />
			<leg mode="car" dep_time="08:00:00" trav_time="00:10:53" arr_time="08:10:53">
				<route dist="19650.45495607375" trav_time="00:10:53">
					8228 8226 8227 8236 14705 7910 7803 7613 7666 6709 6514 6515 5464 5519 11795 4392 3671 3672 12394 4022 4023 4001 3287 3236 3887 9953 3333 3296 3223 2792 2331 2978 14304 12518 2222 
				</route>
			</leg>
			<act type="minor" link="590042" x="616160.035882328" y="7094720.396050273" end_time="10:19:59" />
			<leg mode="car" dep_time="10:19:59" trav_time="00:22:52" arr_time="10:42:51">
				<route dist="38345.09521464629" trav_time="00:22:52">
					1886 12971 2221 2222 2905 2906 2298 2274 2275 3115 15537 3220 9922 2831 10684 3679 13453 3314 4034 4118 3417 4137 3505 15823 3588 3586 4385 15659 4128 5151 4503 11428 5669 5686 4728 4717 4720 5650 4684 4670 4671 12891 4677 4751 5721 4876 11411 6173 6626 6500 6846 7409 7286 7684 7654 7655 7755 7937 8017 15487 8558 12575 8595 11644 11134 10234 12262 13056 14589 9262 9263 
				</route>
			</leg>
			<act type="minor" link="573174" x="593315.9603217583" y="7117772.161611377" end_time="12:39:58" />
			<leg mode="car" dep_time="12:39:58" trav_time="00:42:38" arr_time="13:22:36">
				<route dist="78327.65086234751" trav_time="00:42:38">
					9520 12267 11481 9261 9257 9125 13057 9126 13795 11154 8687 8570 8593 7866 7867 7900 7677 7697 7579 7580 6619 14725 11433 5683 14390 5503 12385 9923 9924 2061 1885 12965 1596 1550 11868 11712 1175 15044 904 891 920 15024 805 10888 515 516 487 663 631 630 10745 281 282 534 
				</route>
			</leg>
			<act type="minor" link="1514712" x="586209.6845844727" y="7049865.071007072" end_time="14:59:57" />
			<leg mode="car" dep_time="14:59:57" trav_time="00:45:28" arr_time="15:45:25">
				<route dist="83793.6046493449" trav_time="00:45:28">
					14996 14525 456 14620 509 528 538 10729 620 621 635 443 10210 514 792 11889 644 12759 710 734 940 941 16644 16334 1043 1044 1054 1072 1247 14976 1531 14686 10549 1319 1317 1339 1334 1336 1542 1568 1843 10553 1941 1631 1621 14679 1476 1466 1467 1417 1427 1439 1567 15017 1444 1753 1754 15886 1594 10204 1993 12210 1777 1851 2658 2163 2174 2175 2816 2252 17800 19743 17575 19856 19534 17777 19670 17595 17815 17816 17613 17857 17639 17773 17795 17797 17990 18007 
				</route>
			</leg>
			<act type="minor" link="600706" x="638471.7920759659" y="7098117.391415893" end_time="17:19:56" />
			<leg mode="car" dep_time="17:19:56" trav_time="00:29:35" arr_time="17:49:31">
				<route dist="52618.75917037045" trav_time="00:29:35">
					17902 18007 17836 17965 17796 19242 17638 17878 17864 19614 18927 18928 17703 17702 17706 19763 19055 19388 19536 19253 19702 13220 2189 9964 15863 2226 2906 2298 2274 2275 3115 15537 13214 3623 3600 3601 9952 15248 11829 3961 3666 3667 3769 3734 4622 3716 12119 4511 4545 11381 3750 4662 4866 12095 11950 5062 5237 4574 10976 10488 4608 4616 9883 4744 13882 4891 11249 
				</route>
			</leg>
			<act type="minor" link="501848" x="593048.9871242981" y="7103966.700741111" end_time="19:39:55" />
			<leg mode="car" dep_time="19:39:55" trav_time="00:15:46" arr_time="19:55:41">
				<route dist="26726.577633492223" trav_time="00:15:46">
					4891 12550 5899 4744 9883 4627 4617 4582 4573 4574 5237 5515 11240 11011 4876 11245 5620 4678 4679 4670 4684 5650 4725 4726 10982 4715 4613 4614 4697 10487 14073 4758 5689 5707 4827 5005 5573 6236 10466 12352 6722 6965 6822 7184 7264 7265 7281 7290 10789 7300 7301 7441 11531 7673 14242 7814 8092 8093 8128 8150 8235 8227 
				</route>
			</leg>
			<act type="major" link="486102" x="614124.2522636395" y="7113796.834507047" start_time="22:00:00" />
		</plan>

		<plan score="-145.22" selected="no">
			<act type="major" link="486102" x="614124.2522636395" y="7113796.834507047" start_time="00:00:00" dur="07:52:38" end_time="07:52:38" />
			<leg mode="car" dep_time="07:52:38" trav_time="00:10:53" arr_time="08:03:31">
				<route dist="19650.45495607375" trav_time="00:10:53">