<?xml version="1.0" encoding="utf-8"?>
<!DOCTYPE network SYSTEM "http://www.matsim.org/files/dtd/network_v1.dtd">

<network name="intersection test network unmodified">
   <nodes>
      <node id="99" x="0" y="0"/>
	   
	  <node id="1" x="-1" y="100"/>
      <node id="2" x="1" y="100"/>
      <node id="3" x="100" y="1"/>
      <node id="4" x="100" y="-1"/>
      <node id="5" x="1" y="-100"/>
      <node id="6" x="-1" y="-100"/>
      <node id="7" x="-100" y="-1"/>
      <node id="8" x="-100" y="1"/>
	   
      <node id="1020" x="0" y="200"/>
      <node id="3040" x="200" y="0"/>
      <node id="5060" x="0" y="-200"/>
      <node id="7080" x="-200" y="0"/>
   </nodes>
   <links capperiod="01:00:00">
      <link id="1" from="1" to="99" length="1000.00" capacity="3600" freespeed="27.78" permlanes="1"  />
      <link id="2" from="99" to="2" length="1000.00" capacity="3600" freespeed="27.78" permlanes="1"  />
      <link id="3" from="3" to="99" length="1000.00" capacity="3600" freespeed="27.78" permlanes="1"  />
      <link id="4" from="99" to="4" length="1000.00" capacity="3600" freespeed="27.78" permlanes="1"  />
      <link id="5" from="5" to="99" length="1000.00" capacity="3600" freespeed="27.78" permlanes="1"  />
      <link id="6" from="99" to="6" length="1000.00" capacity="3600" freespeed="27.78" permlanes="1"  />
      <link id="7" from="7" to="99" length="1000.00" capacity="3600" freespeed="27.78" permlanes="1"  />
      <link id="8" from="99" to="8" length="1000.00" capacity="3600" freespeed="27.78" permlanes="1"  />
	   
      <link id="10" from="1020" to="1" length="1000.00" capacity="36000" freespeed="27.78" permlanes="1"  />
      <link id="20" from="2" to="1020" length="1000.00" capacity="36000" freespeed="27.78" permlanes="1"  />
      <link id="30" from="3040" to="3" length="1000.00" capacity="36000" freespeed="27.78" permlanes="1"  />
      <link id="40" from="4" to="3040" length="1000.00" capacity="36000" freespeed="27.78" permlanes="1"  />
      <link id="50" from="5060" to="5" length="1000.00" capacity="36000" freespeed="27.78" permlanes="1"  />
      <link id="60" from="6" to="5060" length="1000.00" capacity="36000" freespeed="27.78" permlanes="1"  />
      <link id="70" from="7080" to="7" length="1000.00" capacity="36000" freespeed="27.78" permlanes="1"  />
      <link id="80" from="8" to="7080" length="1000.00" capacity="36000" freespeed="27.78" permlanes="1"  />
   </links>
</network>
