<?xml version="1.0" encoding="UTF-8"?>

<vehicleDefinitions xmlns="http://www.matsim.org/files/dtd"
 xmlns:xsi="http://www.w3.org/2001/XMLSchema-instance"
 xsi:schemaLocation="http://www.matsim.org/files/dtd http://www.matsim.org/files/dtd/vehicleDefinitions_v1.0.xsd">
	<vehicleType id="PASSENGER_CAR;average;average;average">
		<length meter="7.5"/>
		<width meter="1.0"/>
		<accessTime secondsPerPerson="1.0"/>
		<egressTime secondsPerPerson="1.0"/>
		<doorOperation mode="serial"/>
	</vehicleType>
	<vehicleType id="PASSENGER_CAR;petrol (4S);&gt;=2L;PC-P-Euro-1">
		<length meter="7.5"/>
		<width meter="1.0"/>
		<accessTime secondsPerPerson="1.0"/>
		<egressTime secondsPerPerson="1.0"/>
		<doorOperation mode="serial"/>
	</vehicleType>
	<vehicleType id="PASSENGER_CAR;diesel;&lt;1,4L;PC-D-Euro-3">
		<length meter="7.5"/>
		<width meter="1.0"/>
		<accessTime secondsPerPerson="1.0"/>
		<egressTime secondsPerPerson="1.0"/>
		<doorOperation mode="serial"/>
	</vehicleType>
	<vehicleType id="HEAVY_GOODS_VEHICLE;average;average;average">
		<length meter="7.5"/>
		<width meter="1.0"/>
		<accessTime secondsPerPerson="1.0"/>
		<egressTime secondsPerPerson="1.0"/>
		<doorOperation mode="serial"/>
	</vehicleType>
	<vehicle id="555928.1#7278" type="PASSENGER_CAR;diesel;&lt;1,4L;PC-D-Euro-3"/>
	<vehicle id="570902.2#10897" type="PASSENGER_CAR;petrol (4S);&gt;=2L;PC-P-Euro-1"/>
	<vehicle id="570902.2#14854" type="PASSENGER_CAR;petrol (4S);&gt;=2L;PC-P-Euro-1"/>
	<vehicle id="570902.2#2983" type="PASSENGER_CAR;petrol (4S);&gt;=2L;PC-P-Euro-1"/>
	<vehicle id="pv_car_10041_9162_1" type="PASSENGER_CAR;average;average;average"/>
	<vehicle id="pv_car_5315_9162_1" type="PASSENGER_CAR;average;average;average"/>
	<vehicle id="gv_4499" type="HEAVY_GOODS_VEHICLE;average;average;average"/>
	<vehicle id="gv_4500" type="HEAVY_GOODS_VEHICLE;average;average;average"/>
</vehicleDefinitions>