<?xml version="1.0" encoding="UTF-8"?>
<!DOCTYPE facilities SYSTEM "http://www.matsim.org/files/dtd/facilities_v1.dtd">
<facilities>
<facility id="100" y="5821600" x="4600333">
<activity type="education_100">
<opentime end_time="12:45:00" start_time="08:10:00" day="wkday"/>
</activity>
</facility>
<facility id="1021" y="5800000" x="4600333">
<activity type="home">
<opentime end_time="24:00:00" start_time="00:00:00" day="wk"/>
</activity>
</facility>
</facilities>
