<?xml version="1.0" encoding="utf-8"?>
<!DOCTYPE network SYSTEM "http://matsim.org/files/dtd/network_v1.dtd">
<network>
	<nodes>
		<node x="4600000.0" y="5799750.0" id="821" />
		<node x="4600000.0" y="5799975.0" id="921" />
		<node x="4600000.0" y="5800000.0" id="1021" />
		<node x="4600000.0" y="5821850.0" id="822" />
		<node x="4600000.0" y="5821625.0" id="922" />
		<node x="4600000.0" y="5821600.0" id="1022" />
		<node x="4600333.3" y="5799750.0" id="824" />
		<node x="4600333.3" y="5799975.0" id="924" />
		<node x="4600333.3" y="5800000.0" id="1024" />
		<node x="4601250.0" y="5810800.0" id="825" />
		<node x="4601025.0" y="5810800.0" id="925" />
		<node x="4601000.0" y="5810800.0" id="1025" />
		<node x="4600333.3" y="5821850.0" id="826" />
		<node x="4600333.3" y="5821625.0" id="926" />
		<node x="4600333.3" y="5821600.0" id="1026" />
	</nodes>
	<links capperiod="10:00:00">
		<link id="102102" modes="pt" permlanes="1" capacity="2000"
			freespeed="22" length="25" to="921" from="821" />
		<link id="102101" modes="pt" permlanes="1" capacity="2000"
			freespeed="22" length="25" to="1021" from="921" />
		<link id="21" modes="pt" permlanes="1" capacity="2000" freespeed="9.23"
			length="21600" to="1026" from="1024" />
		<link id="102402" modes="pt" permlanes="1" capacity="2000"
			freespeed="22" length="25" to="924" from="824" />
		<link id="102401" modes="pt" permlanes="1" capacity="2000"
			freespeed="22" length="25" to="1024" from="924" />
		<link id="102412" modes="pt" permlanes="1" capacity="2000"
			freespeed="22" length="25" to="824" from="924" />
		<link id="102411" modes="pt" permlanes="1" capacity="2000"
			freespeed="22" length="25" to="924" from="1024" />
		<link id="102502" modes="pt" permlanes="1" capacity="2000"
			freespeed="22" length="25" to="925" from="825" />
		<link id="102501" modes="pt" permlanes="1" capacity="2000"
			freespeed="22" length="25" to="1025" from="925" />
		<link id="102512" modes="pt" permlanes="1" capacity="2000"
			freespeed="22" length="25" to="825" from="925" />
		<link id="102511" modes="pt" permlanes="1" capacity="2000"
			freespeed="22" length="25" to="925" from="1025" />
		<link id="11" modes="pt" permlanes="1" capacity="2000" freespeed="22.5"
			length="21600" to="1022" from="1021" />
		<link id="102212" modes="pt" permlanes="1" capacity="2000"
			freespeed="22" length="25" to="822" from="922" />
		<link id="102211" modes="pt" permlanes="1" capacity="2000"
			freespeed="22" length="25" to="922" from="1022" />
		<link id="22" modes="pt" permlanes="1" capacity="2000" freespeed="36"
			length="21600" to="1024" from="1026" />
		<link id="102602" modes="pt" permlanes="1" capacity="2000"
			freespeed="22" length="25" to="926" from="826" />
		<link id="102601" modes="pt" permlanes="1" capacity="2000"
			freespeed="22" length="25" to="1026" from="926" />
		<link id="102612" modes="pt" permlanes="1" capacity="2000"
			freespeed="22" length="25" to="826" from="926" />
		<link id="102611" modes="pt" permlanes="1" capacity="2000"
			freespeed="22" length="25" to="926" from="1026" />
		<link id="31" modes="pt" permlanes="1" capacity="2000" freespeed="13.9"
			length="10846" to="1025" from="1024" />
		<link id="41" modes="pt" permlanes="1" capacity="2000" freespeed="13.9"
			length="10846" to="1026" from="1025" />


	</links>
</network>
