<?xml version="1.0" encoding="UTF-8"?>
<vehicleDefinitions xmlns="http://www.matsim.org/files/dtd" xmlns:xsi="http://www.w3.org/2001/XMLSchema-instance" xsi:schemaLocation="http://www.matsim.org/files/dtd http://www.matsim.org/files/dtd/vehicleDefinitions_v1.0.xsd">
<vehicleType id="1">
<description>pt</description>
<capacity>
<seats persons="50"/>
<standingRoom persons="100"/>
</capacity>
<length meter="12"/>
</vehicleType>
<vehicle id="1000" type="1"/>
<vehicle id="1003" type="1"/>
<vehicle id="1006" type="1"/>
<vehicle id="1009" type="1"/>
<vehicle id="1009b" type="1"/>
<vehicle id="1009c" type="1"/>
<vehicle id="1012" type="1"/>
<vehicle id="1015" type="1"/>
<vehicle id="1018" type="1"/>
<vehicle id="2000" type="1"/>
<vehicle id="2003" type="1"/>
<vehicle id="2006" type="1"/>
<vehicle id="2009" type="1"/>
<vehicle id="2012" type="1"/>
<vehicle id="2015" type="1"/>
<vehicle id="2018" type="1"/>
<vehicle id="3000" type="1"/>
<vehicle id="3003" type="1"/>
<vehicle id="3006" type="1"/>
<vehicle id="3009" type="1"/>
<vehicle id="3012" type="1"/>
<vehicle id="3015" type="1"/>
<vehicle id="3018" type="1"/>
<vehicle id="4000" type="1"/>
<vehicle id="4003" type="1"/>
<vehicle id="4006" type="1"/>
<vehicle id="4009" type="1"/>
<vehicle id="4012" type="1"/>
<vehicle id="4015" type="1"/>
<vehicle id="4018" type="1"/>
<vehicle id="1100" type="1"/>
<vehicle id="1103" type="1"/>
<vehicle id="1106" type="1"/>
<vehicle id="1109" type="1"/>
<vehicle id="1112" type="1"/>
<vehicle id="1115" type="1"/>
<vehicle id="1118" type="1"/>
<vehicle id="2100" type="1"/>
<vehicle id="2103" type="1"/>
<vehicle id="2106" type="1"/>
<vehicle id="2109" type="1"/>
<vehicle id="2112" type="1"/>
<vehicle id="2115" type="1"/>
<vehicle id="2118" type="1"/>
<vehicle id="3100" type="1"/>
<vehicle id="3103" type="1"/>
<vehicle id="3106" type="1"/>
<vehicle id="3109" type="1"/>
<vehicle id="3112" type="1"/>
<vehicle id="3115" type="1"/>
<vehicle id="3118" type="1"/>
<vehicle id="4100" type="1"/>
<vehicle id="4103" type="1"/>
<vehicle id="4106" type="1"/>
<vehicle id="4109" type="1"/>
<vehicle id="4112" type="1"/>
<vehicle id="4115" type="1"/>
<vehicle id="4118" type="1"/>
</vehicleDefinitions>
