<?xml version="1.0" encoding="UTF-8"?>
<!DOCTYPE network SYSTEM "http://www.matsim.org/files/dtd/network_v2.dtd">
<network>

<!-- ====================================================================== -->

	<nodes>
		<node id="1" x="-2000.0" y="0.0" >
		</node>
		<node id="2" x="-1000.0" y="0.0" >
		</node>
		<node id="3" x="0.0" y="0.0" >
		</node>
		<node id="4" x="1000.0" y="0.0" >
		</node>
		<node id="5" x="2000.0" y="0.0" >
		</node>
		<node id="6" x="0.0" y="2000.0" >
		</node>
		<node id="7" x="0.0" y="1000.0" >
		</node>
		<node id="8" x="0.0" y="-1000.0" >
		</node>
		<node id="9" x="0.0" y="-2000.0" >
		</node>
	</nodes>

<!-- ====================================================================== -->

	<links capperiod="01:00:00" effectivecellsize="7.5" effectivelanewidth="3.75">
		<link id="1_2" from="1" to="2" length="1000.0" freespeed="13.889" capacity="3600.0" permlanes="1.0" oneway="1" modes="car" >
		</link>
		<link id="2_1" from="2" to="1" length="1000.0" freespeed="13.889" capacity="3600.0" permlanes="1.0" oneway="1" modes="car" >
		</link>
		<link id="2_3" from="2" to="3" length="1000.0" freespeed="13.889" capacity="3600.0" permlanes="1.0" oneway="1" modes="car" >
		</link>
		<link id="3_2" from="3" to="2" length="1000.0" freespeed="13.889" capacity="3600.0" permlanes="1.0" oneway="1" modes="car" >
		</link>
		<link id="3_4" from="3" to="4" length="1000.0" freespeed="13.889" capacity="3600.0" permlanes="1.0" oneway="1" modes="car" >
		</link>
		<link id="3_7" from="3" to="7" length="1000.0" freespeed="13.889" capacity="1800.0" permlanes="1.0" oneway="1" modes="car" >
		</link>
		<link id="3_8" from="3" to="8" length="1000.0" freespeed="13.889" capacity="1800.0" permlanes="1.0" oneway="1" modes="car" >
		</link>
		<link id="4_3" from="4" to="3" length="1000.0" freespeed="13.889" capacity="3600.0" permlanes="1.0" oneway="1" modes="car" >
		</link>
		<link id="4_5" from="4" to="5" length="1000.0" freespeed="13.889" capacity="3600.0" permlanes="1.0" oneway="1" modes="car" >
		</link>
		<link id="5_4" from="5" to="4" length="1000.0" freespeed="13.889" capacity="3600.0" permlanes="1.0" oneway="1" modes="car" >
		</link>
		<link id="6_7" from="6" to="7" length="1000.0" freespeed="13.889" capacity="1800.0" permlanes="1.0" oneway="1" modes="car" >
		</link>
		<link id="7_3" from="7" to="3" length="1000.0" freespeed="13.889" capacity="1800.0" permlanes="1.0" oneway="1" modes="car" >
		</link>
		<link id="7_6" from="7" to="6" length="1000.0" freespeed="13.889" capacity="1800.0" permlanes="1.0" oneway="1" modes="car" >
		</link>
		<link id="8_3" from="8" to="3" length="1000.0" freespeed="13.889" capacity="1800.0" permlanes="1.0" oneway="1" modes="car" >
		</link>
		<link id="8_9" from="8" to="9" length="1000.0" freespeed="13.889" capacity="1800.0" permlanes="1.0" oneway="1" modes="car" >
		</link>
		<link id="9_8" from="9" to="8" length="1000.0" freespeed="13.889" capacity="1800.0" permlanes="1.0" oneway="1" modes="car" >
		</link>
	</links>

<!-- ====================================================================== -->

</network>
