<?xml version="1.0" encoding="utf-8"?>
<!DOCTYPE population SYSTEM "http://www.matsim.org/files/dtd/population_v6.dtd">

<population>



<!-- ====================================================================== -->

	<person id="1_2-4_5-102.0(0)">
		<plan selected="yes">
			<activity type="dummy" link="1_2" end_time="00:01:42" >
			</activity>
			<leg mode="car">
			</leg>
			<activity type="dummy" link="4_5" >
			</activity>
		</plan>

	</person>

<!-- ====================================================================== -->

	<person id="1_2-4_5-102.0(1)">
		<plan selected="yes">
			<activity type="dummy" link="1_2" end_time="00:01:42" >
			</activity>
			<leg mode="car">
			</leg>
			<activity type="dummy" link="4_5" >
			</activity>
		</plan>

	</person>

<!-- ====================================================================== -->

	<person id="1_2-4_5-1031.0(0)">
		<plan selected="yes">
			<activity type="dummy" link="1_2" end_time="00:17:11" >
			</activity>
			<leg mode="car">
			</leg>
			<activity type="dummy" link="4_5" >
			</activity>
		</plan>

	</person>

<!-- ====================================================================== -->

	<person id="1_2-4_5-1031.0(1)">
		<plan selected="yes">
			<activity type="dummy" link="1_2" end_time="00:17:11" >
			</activity>
			<leg mode="car">
			</leg>
			<activity type="dummy" link="4_5" >
			</activity>
		</plan>

	</person>

<!-- ====================================================================== -->

	<person id="1_2-4_5-1035.0(0)">
		<plan selected="yes">
			<activity type="dummy" link="1_2" end_time="00:17:15" >
			</activity>
			<leg mode="car">
			</leg>
			<activity type="dummy" link="4_5" >
			</activity>
		</plan>

	</person>

<!-- ====================================================================== -->

	<person id="1_2-4_5-1035.0(1)">
		<plan selected="yes">
			<activity type="dummy" link="1_2" end_time="00:17:15" >
			</activity>
			<leg mode="car">
			</leg>
			<activity type="dummy" link="4_5" >
			</activity>
		</plan>

	</person>

<!-- ====================================================================== -->

	<person id="1_2-4_5-1035.0(10)">
		<plan selected="yes">
			<activity type="dummy" link="1_2" end_time="00:17:15" >
			</activity>
			<leg mode="car">
			</leg>
			<activity type="dummy" link="4_5" >
			</activity>
		</plan>

	</person>

<!-- ====================================================================== -->

	<person id="1_2-4_5-1035.0(11)">
		<plan selected="yes">
			<activity type="dummy" link="1_2" end_time="00:17:15" >
			</activity>
			<leg mode="car">
			</leg>
			<activity type="dummy" link="4_5" >
			</activity>
		</plan>

	</person>

<!-- ====================================================================== -->

	<person id="1_2-4_5-1035.0(12)">
		<plan selected="yes">
			<activity type="dummy" link="1_2" end_time="00:17:15" >
			</activity>
			<leg mode="car">
			</leg>
			<activity type="dummy" link="4_5" >
			</activity>
		</plan>

	</person>

<!-- ====================================================================== -->

	<person id="1_2-4_5-1035.0(13)">
		<plan selected="yes">
			<activity type="dummy" link="1_2" end_time="00:17:15" >
			</activity>
			<leg mode="car">
			</leg>
			<activity type="dummy" link="4_5" >
			</activity>
		</plan>

	</person>

<!-- ====================================================================== -->

	<person id="1_2-4_5-1035.0(14)">
		<plan selected="yes">
			<activity type="dummy" link="1_2" end_time="00:17:15" >
			</activity>
			<leg mode="car">
			</leg>
			<activity type="dummy" link="4_5" >
			</activity>
		</plan>

	</person>

<!-- ====================================================================== -->

	<person id="1_2-4_5-1035.0(15)">
		<plan selected="yes">
			<activity type="dummy" link="1_2" end_time="00:17:15" >
			</activity>
			<leg mode="car">
			</leg>
			<activity type="dummy" link="4_5" >
			</activity>
		</plan>

	</person>

<!-- ====================================================================== -->

	<person id="1_2-4_5-1035.0(16)">
		<plan selected="yes">
			<activity type="dummy" link="1_2" end_time="00:17:15" >
			</activity>
			<leg mode="car">
			</leg>
			<activity type="dummy" link="4_5" >
			</activity>
		</plan>

	</person>

<!-- ====================================================================== -->

	<person id="1_2-4_5-1035.0(17)">
		<plan selected="yes">
			<activity type="dummy" link="1_2" end_time="00:17:15" >
			</activity>
			<leg mode="car">
			</leg>
			<activity type="dummy" link="4_5" >
			</activity>
		</plan>

	</person>

<!-- ====================================================================== -->

	<person id="1_2-4_5-1035.0(18)">
		<plan selected="yes">
			<activity type="dummy" link="1_2" end_time="00:17:15" >
			</activity>
			<leg mode="car">
			</leg>
			<activity type="dummy" link="4_5" >
			</activity>
		</plan>

	</person>

<!-- ====================================================================== -->

	<person id="1_2-4_5-1035.0(19)">
		<plan selected="yes">
			<activity type="dummy" link="1_2" end_time="00:17:15" >
			</activity>
			<leg mode="car">
			</leg>
			<activity type="dummy" link="4_5" >
			</activity>
		</plan>

	</person>

<!-- ====================================================================== -->

	<person id="1_2-4_5-1035.0(2)">
		<plan selected="yes">
			<activity type="dummy" link="1_2" end_time="00:17:15" >
			</activity>
			<leg mode="car">
			</leg>
			<activity type="dummy" link="4_5" >
			</activity>
		</plan>

	</person>

<!-- ====================================================================== -->

	<person id="1_2-4_5-1035.0(20)">
		<plan selected="yes">
			<activity type="dummy" link="1_2" end_time="00:17:15" >
			</activity>
			<leg mode="car">
			</leg>
			<activity type="dummy" link="4_5" >
			</activity>
		</plan>

	</person>

<!-- ====================================================================== -->

	<person id="1_2-4_5-1035.0(21)">
		<plan selected="yes">
			<activity type="dummy" link="1_2" end_time="00:17:15" >
			</activity>
			<leg mode="car">
			</leg>
			<activity type="dummy" link="4_5" >
			</activity>
		</plan>

	</person>

<!-- ====================================================================== -->

	<person id="1_2-4_5-1035.0(3)">
		<plan selected="yes">
			<activity type="dummy" link="1_2" end_time="00:17:15" >
			</activity>
			<leg mode="car">
			</leg>
			<activity type="dummy" link="4_5" >
			</activity>
		</plan>

	</person>

<!-- ====================================================================== -->

	<person id="1_2-4_5-1035.0(4)">
		<plan selected="yes">
			<activity type="dummy" link="1_2" end_time="00:17:15" >
			</activity>
			<leg mode="car">
			</leg>
			<activity type="dummy" link="4_5" >
			</activity>
		</plan>

	</person>

<!-- ====================================================================== -->

	<person id="1_2-4_5-1035.0(5)">
		<plan selected="yes">
			<activity type="dummy" link="1_2" end_time="00:17:15" >
			</activity>
			<leg mode="car">
			</leg>
			<activity type="dummy" link="4_5" >
			</activity>
		</plan>

	</person>

<!-- ====================================================================== -->

	<person id="1_2-4_5-1035.0(6)">
		<plan selected="yes">
			<activity type="dummy" link="1_2" end_time="00:17:15" >
			</activity>
			<leg mode="car">
			</leg>
			<activity type="dummy" link="4_5" >
			</activity>
		</plan>

	</person>

<!-- ====================================================================== -->

	<person id="1_2-4_5-1035.0(7)">
		<plan selected="yes">
			<activity type="dummy" link="1_2" end_time="00:17:15" >
			</activity>
			<leg mode="car">
			</leg>
			<activity type="dummy" link="4_5" >
			</activity>
		</plan>

	</person>

<!-- ====================================================================== -->

	<person id="1_2-4_5-1035.0(8)">
		<plan selected="yes">
			<activity type="dummy" link="1_2" end_time="00:17:15" >
			</activity>
			<leg mode="car">
			</leg>
			<activity type="dummy" link="4_5" >
			</activity>
		</plan>

	</person>

<!-- ====================================================================== -->

	<person id="1_2-4_5-1035.0(9)">
		<plan selected="yes">
			<activity type="dummy" link="1_2" end_time="00:17:15" >
			</activity>
			<leg mode="car">
			</leg>
			<activity type="dummy" link="4_5" >
			</activity>
		</plan>

	</person>

<!-- ====================================================================== -->

	<person id="1_2-4_5-1064.0(0)">
		<plan selected="yes">
			<activity type="dummy" link="1_2" end_time="00:17:44" >
			</activity>
			<leg mode="car">
			</leg>
			<activity type="dummy" link="4_5" >
			</activity>
		</plan>

	</person>

<!-- ====================================================================== -->

	<person id="1_2-4_5-1064.0(1)">
		<plan selected="yes">
			<activity type="dummy" link="1_2" end_time="00:17:44" >
			</activity>
			<leg mode="car">
			</leg>
			<activity type="dummy" link="4_5" >
			</activity>
		</plan>

	</person>

<!-- ====================================================================== -->

	<person id="1_2-4_5-107.0(0)">
		<plan selected="yes">
			<activity type="dummy" link="1_2" end_time="00:01:47" >
			</activity>
			<leg mode="car">
			</leg>
			<activity type="dummy" link="4_5" >
			</activity>
		</plan>

	</person>

<!-- ====================================================================== -->

	<person id="1_2-4_5-107.0(1)">
		<plan selected="yes">
			<activity type="dummy" link="1_2" end_time="00:01:47" >
			</activity>
			<leg mode="car">
			</leg>
			<activity type="dummy" link="4_5" >
			</activity>
		</plan>

	</person>

<!-- ====================================================================== -->

	<person id="1_2-4_5-107.0(2)">
		<plan selected="yes">
			<activity type="dummy" link="1_2" end_time="00:01:47" >
			</activity>
			<leg mode="car">
			</leg>
			<activity type="dummy" link="4_5" >
			</activity>
		</plan>

	</person>

<!-- ====================================================================== -->

	<person id="1_2-4_5-107.0(3)">
		<plan selected="yes">
			<activity type="dummy" link="1_2" end_time="00:01:47" >
			</activity>
			<leg mode="car">
			</leg>
			<activity type="dummy" link="4_5" >
			</activity>
		</plan>

	</person>

<!-- ====================================================================== -->

	<person id="1_2-4_5-107.0(4)">
		<plan selected="yes">
			<activity type="dummy" link="1_2" end_time="00:01:47" >
			</activity>
			<leg mode="car">
			</leg>
			<activity type="dummy" link="4_5" >
			</activity>
		</plan>

	</person>

<!-- ====================================================================== -->

	<person id="1_2-4_5-107.0(5)">
		<plan selected="yes">
			<activity type="dummy" link="1_2" end_time="00:01:47" >
			</activity>
			<leg mode="car">
			</leg>
			<activity type="dummy" link="4_5" >
			</activity>
		</plan>

	</person>

<!-- ====================================================================== -->

	<person id="1_2-4_5-1070.0(0)">
		<plan selected="yes">
			<activity type="dummy" link="1_2" end_time="00:17:50" >
			</activity>
			<leg mode="car">
			</leg>
			<activity type="dummy" link="4_5" >
			</activity>
		</plan>

	</person>

<!-- ====================================================================== -->

	<person id="1_2-4_5-1070.0(1)">
		<plan selected="yes">
			<activity type="dummy" link="1_2" end_time="00:17:50" >
			</activity>
			<leg mode="car">
			</leg>
			<activity type="dummy" link="4_5" >
			</activity>
		</plan>

	</person>

<!-- ====================================================================== -->

	<person id="1_2-4_5-1070.0(2)">
		<plan selected="yes">
			<activity type="dummy" link="1_2" end_time="00:17:50" >
			</activity>
			<leg mode="car">
			</leg>
			<activity type="dummy" link="4_5" >
			</activity>
		</plan>

	</person>

<!-- ====================================================================== -->

	<person id="1_2-4_5-1078.0(0)">
		<plan selected="yes">
			<activity type="dummy" link="1_2" end_time="00:17:58" >
			</activity>
			<leg mode="car">
			</leg>
			<activity type="dummy" link="4_5" >
			</activity>
		</plan>

	</person>

<!-- ====================================================================== -->

	<person id="1_2-4_5-1078.0(1)">
		<plan selected="yes">
			<activity type="dummy" link="1_2" end_time="00:17:58" >
			</activity>
			<leg mode="car">
			</leg>
			<activity type="dummy" link="4_5" >
			</activity>
		</plan>

	</person>

<!-- ====================================================================== -->

	<person id="1_2-4_5-1078.0(2)">
		<plan selected="yes">
			<activity type="dummy" link="1_2" end_time="00:17:58" >
			</activity>
			<leg mode="car">
			</leg>
			<activity type="dummy" link="4_5" >
			</activity>
		</plan>

	</person>

<!-- ====================================================================== -->

	<person id="1_2-4_5-1078.0(3)">
		<plan selected="yes">
			<activity type="dummy" link="1_2" end_time="00:17:58" >
			</activity>
			<leg mode="car">
			</leg>
			<activity type="dummy" link="4_5" >
			</activity>
		</plan>

	</person>

<!-- ====================================================================== -->

	<person id="1_2-4_5-1078.0(4)">
		<plan selected="yes">
			<activity type="dummy" link="1_2" end_time="00:17:58" >
			</activity>
			<leg mode="car">
			</leg>
			<activity type="dummy" link="4_5" >
			</activity>
		</plan>

	</person>

<!-- ====================================================================== -->

	<person id="1_2-4_5-1078.0(5)">
		<plan selected="yes">
			<activity type="dummy" link="1_2" end_time="00:17:58" >
			</activity>
			<leg mode="car">
			</leg>
			<activity type="dummy" link="4_5" >
			</activity>
		</plan>

	</person>

<!-- ====================================================================== -->

	<person id="1_2-4_5-1093.0(0)">
		<plan selected="yes">
			<activity type="dummy" link="1_2" end_time="00:18:13" >
			</activity>
			<leg mode="car">
			</leg>
			<activity type="dummy" link="4_5" >
			</activity>
		</plan>

	</person>

<!-- ====================================================================== -->

	<person id="1_2-4_5-1117.0(0)">
		<plan selected="yes">
			<activity type="dummy" link="1_2" end_time="00:18:37" >
			</activity>
			<leg mode="car">
			</leg>
			<activity type="dummy" link="4_5" >
			</activity>
		</plan>

	</person>

<!-- ====================================================================== -->

	<person id="1_2-4_5-1117.0(1)">
		<plan selected="yes">
			<activity type="dummy" link="1_2" end_time="00:18:37" >
			</activity>
			<leg mode="car">
			</leg>
			<activity type="dummy" link="4_5" >
			</activity>
		</plan>

	</person>

<!-- ====================================================================== -->

	<person id="1_2-4_5-1117.0(10)">
		<plan selected="yes">
			<activity type="dummy" link="1_2" end_time="00:18:37" >
			</activity>
			<leg mode="car">
			</leg>
			<activity type="dummy" link="4_5" >
			</activity>
		</plan>

	</person>

<!-- ====================================================================== -->

	<person id="1_2-4_5-1117.0(11)">
		<plan selected="yes">
			<activity type="dummy" link="1_2" end_time="00:18:37" >
			</activity>
			<leg mode="car">
			</leg>
			<activity type="dummy" link="4_5" >
			</activity>
		</plan>

	</person>

<!-- ====================================================================== -->

	<person id="1_2-4_5-1117.0(2)">
		<plan selected="yes">
			<activity type="dummy" link="1_2" end_time="00:18:37" >
			</activity>
			<leg mode="car">
			</leg>
			<activity type="dummy" link="4_5" >
			</activity>
		</plan>

	</person>

<!-- ====================================================================== -->

	<person id="1_2-4_5-1117.0(3)">
		<plan selected="yes">
			<activity type="dummy" link="1_2" end_time="00:18:37" >
			</activity>
			<leg mode="car">
			</leg>
			<activity type="dummy" link="4_5" >
			</activity>
		</plan>

	</person>

<!-- ====================================================================== -->

	<person id="1_2-4_5-1117.0(4)">
		<plan selected="yes">
			<activity type="dummy" link="1_2" end_time="00:18:37" >
			</activity>
			<leg mode="car">
			</leg>
			<activity type="dummy" link="4_5" >
			</activity>
		</plan>

	</person>

<!-- ====================================================================== -->

	<person id="1_2-4_5-1117.0(5)">
		<plan selected="yes">
			<activity type="dummy" link="1_2" end_time="00:18:37" >
			</activity>
			<leg mode="car">
			</leg>
			<activity type="dummy" link="4_5" >
			</activity>
		</plan>

	</person>

<!-- ====================================================================== -->

	<person id="1_2-4_5-1117.0(6)">
		<plan selected="yes">
			<activity type="dummy" link="1_2" end_time="00:18:37" >
			</activity>
			<leg mode="car">
			</leg>
			<activity type="dummy" link="4_5" >
			</activity>
		</plan>

	</person>

<!-- ====================================================================== -->

	<person id="1_2-4_5-1117.0(7)">
		<plan selected="yes">
			<activity type="dummy" link="1_2" end_time="00:18:37" >
			</activity>
			<leg mode="car">
			</leg>
			<activity type="dummy" link="4_5" >
			</activity>
		</plan>

	</person>

<!-- ====================================================================== -->

	<person id="1_2-4_5-1117.0(8)">
		<plan selected="yes">
			<activity type="dummy" link="1_2" end_time="00:18:37" >
			</activity>
			<leg mode="car">
			</leg>
			<activity type="dummy" link="4_5" >
			</activity>
		</plan>

	</person>

<!-- ====================================================================== -->

	<person id="1_2-4_5-1117.0(9)">
		<plan selected="yes">
			<activity type="dummy" link="1_2" end_time="00:18:37" >
			</activity>
			<leg mode="car">
			</leg>
			<activity type="dummy" link="4_5" >
			</activity>
		</plan>

	</person>

<!-- ====================================================================== -->

	<person id="1_2-4_5-1138.0(0)">
		<plan selected="yes">
			<activity type="dummy" link="1_2" end_time="00:18:58" >
			</activity>
			<leg mode="car">
			</leg>
			<activity type="dummy" link="4_5" >
			</activity>
		</plan>

	</person>

<!-- ====================================================================== -->

	<person id="1_2-4_5-1138.0(1)">
		<plan selected="yes">
			<activity type="dummy" link="1_2" end_time="00:18:58" >
			</activity>
			<leg mode="car">
			</leg>
			<activity type="dummy" link="4_5" >
			</activity>
		</plan>

	</person>

<!-- ====================================================================== -->

	<person id="1_2-4_5-1158.0(0)">
		<plan selected="yes">
			<activity type="dummy" link="1_2" end_time="00:19:18" >
			</activity>
			<leg mode="car">
			</leg>
			<activity type="dummy" link="4_5" >
			</activity>
		</plan>

	</person>

<!-- ====================================================================== -->

	<person id="1_2-4_5-1158.0(1)">
		<plan selected="yes">
			<activity type="dummy" link="1_2" end_time="00:19:18" >
			</activity>
			<leg mode="car">
			</leg>
			<activity type="dummy" link="4_5" >
			</activity>
		</plan>

	</person>

<!-- ====================================================================== -->

	<person id="1_2-4_5-1158.0(2)">
		<plan selected="yes">
			<activity type="dummy" link="1_2" end_time="00:19:18" >
			</activity>
			<leg mode="car">
			</leg>
			<activity type="dummy" link="4_5" >
			</activity>
		</plan>

	</person>

<!-- ====================================================================== -->

	<person id="1_2-4_5-1158.0(3)">
		<plan selected="yes">
			<activity type="dummy" link="1_2" end_time="00:19:18" >
			</activity>
			<leg mode="car">
			</leg>
			<activity type="dummy" link="4_5" >
			</activity>
		</plan>

	</person>

<!-- ====================================================================== -->

	<person id="1_2-4_5-1158.0(4)">
		<plan selected="yes">
			<activity type="dummy" link="1_2" end_time="00:19:18" >
			</activity>
			<leg mode="car">
			</leg>
			<activity type="dummy" link="4_5" >
			</activity>
		</plan>

	</person>

<!-- ====================================================================== -->

	<person id="1_2-4_5-1158.0(5)">
		<plan selected="yes">
			<activity type="dummy" link="1_2" end_time="00:19:18" >
			</activity>
			<leg mode="car">
			</leg>
			<activity type="dummy" link="4_5" >
			</activity>
		</plan>

	</person>

<!-- ====================================================================== -->

	<person id="1_2-4_5-1158.0(6)">
		<plan selected="yes">
			<activity type="dummy" link="1_2" end_time="00:19:18" >
			</activity>
			<leg mode="car">
			</leg>
			<activity type="dummy" link="4_5" >
			</activity>
		</plan>

	</person>

<!-- ====================================================================== -->

	<person id="1_2-4_5-1158.0(7)">
		<plan selected="yes">
			<activity type="dummy" link="1_2" end_time="00:19:18" >
			</activity>
			<leg mode="car">
			</leg>
			<activity type="dummy" link="4_5" >
			</activity>
		</plan>

	</person>

<!-- ====================================================================== -->

	<person id="1_2-4_5-1161.0(0)">
		<plan selected="yes">
			<activity type="dummy" link="1_2" end_time="00:19:21" >
			</activity>
			<leg mode="car">
			</leg>
			<activity type="dummy" link="4_5" >
			</activity>
		</plan>

	</person>

<!-- ====================================================================== -->

	<person id="1_2-4_5-1161.0(1)">
		<plan selected="yes">
			<activity type="dummy" link="1_2" end_time="00:19:21" >
			</activity>
			<leg mode="car">
			</leg>
			<activity type="dummy" link="4_5" >
			</activity>
		</plan>

	</person>

<!-- ====================================================================== -->

	<person id="1_2-4_5-1161.0(2)">
		<plan selected="yes">
			<activity type="dummy" link="1_2" end_time="00:19:21" >
			</activity>
			<leg mode="car">
			</leg>
			<activity type="dummy" link="4_5" >
			</activity>
		</plan>

	</person>

<!-- ====================================================================== -->

	<person id="1_2-4_5-1161.0(3)">
		<plan selected="yes">
			<activity type="dummy" link="1_2" end_time="00:19:21" >
			</activity>
			<leg mode="car">
			</leg>
			<activity type="dummy" link="4_5" >
			</activity>
		</plan>

	</person>

<!-- ====================================================================== -->

	<person id="1_2-4_5-1161.0(4)">
		<plan selected="yes">
			<activity type="dummy" link="1_2" end_time="00:19:21" >
			</activity>
			<leg mode="car">
			</leg>
			<activity type="dummy" link="4_5" >
			</activity>
		</plan>

	</person>

<!-- ====================================================================== -->

	<person id="1_2-4_5-1161.0(5)">
		<plan selected="yes">
			<activity type="dummy" link="1_2" end_time="00:19:21" >
			</activity>
			<leg mode="car">
			</leg>
			<activity type="dummy" link="4_5" >
			</activity>
		</plan>

	</person>

<!-- ====================================================================== -->

	<person id="1_2-4_5-1161.0(6)">
		<plan selected="yes">
			<activity type="dummy" link="1_2" end_time="00:19:21" >
			</activity>
			<leg mode="car">
			</leg>
			<activity type="dummy" link="4_5" >
			</activity>
		</plan>

	</person>

<!-- ====================================================================== -->

	<person id="1_2-4_5-1161.0(7)">
		<plan selected="yes">
			<activity type="dummy" link="1_2" end_time="00:19:21" >
			</activity>
			<leg mode="car">
			</leg>
			<activity type="dummy" link="4_5" >
			</activity>
		</plan>

	</person>

<!-- ====================================================================== -->

	<person id="1_2-4_5-1161.0(8)">
		<plan selected="yes">
			<activity type="dummy" link="1_2" end_time="00:19:21" >
			</activity>
			<leg mode="car">
			</leg>
			<activity type="dummy" link="4_5" >
			</activity>
		</plan>

	</person>

<!-- ====================================================================== -->

	<person id="1_2-4_5-1172.0(0)">
		<plan selected="yes">
			<activity type="dummy" link="1_2" end_time="00:19:32" >
			</activity>
			<leg mode="car">
			</leg>
			<activity type="dummy" link="4_5" >
			</activity>
		</plan>

	</person>

<!-- ====================================================================== -->

	<person id="1_2-4_5-1172.0(1)">
		<plan selected="yes">
			<activity type="dummy" link="1_2" end_time="00:19:32" >
			</activity>
			<leg mode="car">
			</leg>
			<activity type="dummy" link="4_5" >
			</activity>
		</plan>

	</person>

<!-- ====================================================================== -->

	<person id="1_2-4_5-1172.0(10)">
		<plan selected="yes">
			<activity type="dummy" link="1_2" end_time="00:19:32" >
			</activity>
			<leg mode="car">
			</leg>
			<activity type="dummy" link="4_5" >
			</activity>
		</plan>

	</person>

<!-- ====================================================================== -->

	<person id="1_2-4_5-1172.0(11)">
		<plan selected="yes">
			<activity type="dummy" link="1_2" end_time="00:19:32" >
			</activity>
			<leg mode="car">
			</leg>
			<activity type="dummy" link="4_5" >
			</activity>
		</plan>

	</person>

<!-- ====================================================================== -->

	<person id="1_2-4_5-1172.0(2)">
		<plan selected="yes">
			<activity type="dummy" link="1_2" end_time="00:19:32" >
			</activity>
			<leg mode="car">
			</leg>
			<activity type="dummy" link="4_5" >
			</activity>
		</plan>

	</person>

<!-- ====================================================================== -->

	<person id="1_2-4_5-1172.0(3)">
		<plan selected="yes">
			<activity type="dummy" link="1_2" end_time="00:19:32" >
			</activity>
			<leg mode="car">
			</leg>
			<activity type="dummy" link="4_5" >
			</activity>
		</plan>

	</person>

<!-- ====================================================================== -->

	<person id="1_2-4_5-1172.0(4)">
		<plan selected="yes">
			<activity type="dummy" link="1_2" end_time="00:19:32" >
			</activity>
			<leg mode="car">
			</leg>
			<activity type="dummy" link="4_5" >
			</activity>
		</plan>

	</person>

<!-- ====================================================================== -->

	<person id="1_2-4_5-1172.0(5)">
		<plan selected="yes">
			<activity type="dummy" link="1_2" end_time="00:19:32" >
			</activity>
			<leg mode="car">
			</leg>
			<activity type="dummy" link="4_5" >
			</activity>
		</plan>

	</person>

<!-- ====================================================================== -->

	<person id="1_2-4_5-1172.0(6)">
		<plan selected="yes">
			<activity type="dummy" link="1_2" end_time="00:19:32" >
			</activity>
			<leg mode="car">
			</leg>
			<activity type="dummy" link="4_5" >
			</activity>
		</plan>

	</person>

<!-- ====================================================================== -->

	<person id="1_2-4_5-1172.0(7)">
		<plan selected="yes">
			<activity type="dummy" link="1_2" end_time="00:19:32" >
			</activity>
			<leg mode="car">
			</leg>
			<activity type="dummy" link="4_5" >
			</activity>
		</plan>

	</person>

<!-- ====================================================================== -->

	<person id="1_2-4_5-1172.0(8)">
		<plan selected="yes">
			<activity type="dummy" link="1_2" end_time="00:19:32" >
			</activity>
			<leg mode="car">
			</leg>
			<activity type="dummy" link="4_5" >
			</activity>
		</plan>

	</person>

<!-- ====================================================================== -->

	<person id="1_2-4_5-1172.0(9)">
		<plan selected="yes">
			<activity type="dummy" link="1_2" end_time="00:19:32" >
			</activity>
			<leg mode="car">
			</leg>
			<activity type="dummy" link="4_5" >
			</activity>
		</plan>

	</person>

<!-- ====================================================================== -->

	<person id="1_2-4_5-1201.0(0)">
		<plan selected="yes">
			<activity type="dummy" link="1_2" end_time="00:20:01" >
			</activity>
			<leg mode="car">
			</leg>
			<activity type="dummy" link="4_5" >
			</activity>
		</plan>

	</person>

<!-- ====================================================================== -->

	<person id="1_2-4_5-1201.0(1)">
		<plan selected="yes">
			<activity type="dummy" link="1_2" end_time="00:20:01" >
			</activity>
			<leg mode="car">
			</leg>
			<activity type="dummy" link="4_5" >
			</activity>
		</plan>

	</person>

<!-- ====================================================================== -->

	<person id="1_2-4_5-1201.0(10)">
		<plan selected="yes">
			<activity type="dummy" link="1_2" end_time="00:20:01" >
			</activity>
			<leg mode="car">
			</leg>
			<activity type="dummy" link="4_5" >
			</activity>
		</plan>

	</person>

<!-- ====================================================================== -->

	<person id="1_2-4_5-1201.0(2)">
		<plan selected="yes">
			<activity type="dummy" link="1_2" end_time="00:20:01" >
			</activity>
			<leg mode="car">
			</leg>
			<activity type="dummy" link="4_5" >
			</activity>
		</plan>

	</person>

<!-- ====================================================================== -->

	<person id="1_2-4_5-1201.0(3)">
		<plan selected="yes">
			<activity type="dummy" link="1_2" end_time="00:20:01" >
			</activity>
			<leg mode="car">
			</leg>
			<activity type="dummy" link="4_5" >
			</activity>
		</plan>

	</person>

<!-- ====================================================================== -->

	<person id="1_2-4_5-1201.0(4)">
		<plan selected="yes">
			<activity type="dummy" link="1_2" end_time="00:20:01" >
			</activity>
			<leg mode="car">
			</leg>
			<activity type="dummy" link="4_5" >
			</activity>
		</plan>

	</person>

<!-- ====================================================================== -->

	<person id="1_2-4_5-1201.0(5)">
		<plan selected="yes">