<?xml version="1.0" encoding="UTF-8"?>
<!DOCTYPE facilities SYSTEM "http://www.matsim.org/files/dtd/facilities_v1.dtd">
<facilities name="test facilities for triangle network">

<!-- ====================================================================== -->

	<facility id="1" x="60.0" y="110.0">
		<activity type="home">
		</activity>

	</facility>

<!-- ====================================================================== -->

	<facility id="10" x="110.0" y="270.0">
		<activity type="education">
		</activity>

	</facility>

<!-- ====================================================================== -->

	<facility id="11" x="90.0" y="170.0">
		<activity type="education">
		</activity>

		<activity type="shop">
		</activity>

	</facility>

<!-- ====================================================================== -->

	<facility id="12" x="130.0" y="230.0">
		<activity type="education">
		</activity>

		<activity type="leisure">
		</activity>

	</facility>

<!-- ====================================================================== -->

	<facility id="13" x="240.0" y="200.0">
		<activity type="shop">
		</activity>

	</facility>

<!-- ====================================================================== -->

	<facility id="14" x="10.0" y="50.0">
		<activity type="leisure">
		</activity>

		<activity type="shop">
		</activity>

	</facility>

<!-- ====================================================================== -->

	<facility id="15" x="260.0" y="110.0">
		<activity type="leisure">
		</activity>

	</facility>

<!-- ====================================================================== -->

	<facility id="2" x="310.0" y="70.0">
		<activity type="home">
		</activity>

		<activity type="work">
		</activity>

	</facility>

<!-- ====================================================================== -->

	<facility id="3" x="120.1" y="0.0">
		<activity type="education">
		</activity>

		<activity type="home">
		</activity>

	</facility>

<!-- ====================================================================== -->

	<facility id="4" x="310.0" y="150.0">
		<activity type="home">
		</activity>

		<activity type="shop">
		</activity>

	</facility>

<!-- ====================================================================== -->

	<facility id="5" x="200.1" y="0.0">
		<activity type="home">
		</activity>

		<activity type="leisure">
		</activity>

	</facility>

<!-- ====================================================================== -->

	<facility id="6" x="330.0" y="30.0">
		<activity type="work">
		</activity>

	</facility>

<!-- ====================================================================== -->

	<facility id="7" x="290.0" y="0.0">
		<activity type="education">
		</activity>

		<activity type="work">
		</activity>

	</facility>

<!-- ====================================================================== -->

	<facility id="8" x="50.0" y="0.0">
		<activity type="shop">
		</activity>

		<activity type="work">
		</activity>

	</facility>

<!-- ====================================================================== -->

	<facility id="9" x="250.0" y="270.0">
		<activity type="leisure">
		</activity>

		<activity type="work">
		</activity>

	</facility>

<!-- ====================================================================== -->

</facilities>
