<?xml version="1.0" encoding="UTF-8"?>
<networkChangeEvents xmlns="http://www.matsim.org/files/dtd" xmlns:xsi="http://www.w3.org/2001/XMLSchema-instance" xsi:schemaLocation="http://www.matsim.org/files/dtd http://www.matsim.org/files/dtd/networkChangeEvents.xsd">
	<networkChangeEvent startTime="03:06:00">
	    <link refId="1"/>
	    <link refId="2"/>
	    <link refId="3"/>
	    <freespeed type="absolute" value="1.0"/>
	</networkChangeEvent>
</networkChangeEvents>