<?xml version="1.0" encoding="utf-8"?>
<!DOCTYPE population SYSTEM "http://www.matsim.org/files/dtd/population_v6.dtd">

<population>



<!-- ====================================================================== -->

	<person id="reroute_0">
		<plan selected="yes">
			<activity type="h" x="-20000.0" y="0.0" end_time="06:00:00" >
			</activity>
			<leg mode="car">
			</leg>
			<activity type="w" x="-15000.0" y="0.0" end_time="17:00:00" >
			</activity>
			<leg mode="car">
			</leg>
			<activity type="h" x="-865.0" y="5925.0" start_time="18:00:00" >
			</activity>
		</plan>

	</person>

<!-- ====================================================================== -->

	<person id="reroute_1">
		<plan selected="yes">
			<activity type="h" x="-20000.0" y="0.0" end_time="06:00:00" >
			</activity>
			<leg mode="car">
			</leg>
			<activity type="w" x="-15000.0" y="0.0" end_time="17:00:00" >
			</activity>
			<leg mode="car">
			</leg>
			<activity type="h" x="-865.0" y="5925.0" start_time="18:00:00" >
			</activity>
		</plan>

	</person>

<!-- ====================================================================== -->

	<person id="reroute_10">
		<plan selected="yes">
			<activity type="h" x="-20000.0" y="0.0" end_time="06:00:00" >
			</activity>
			<leg mode="car">
			</leg>
			<activity type="w" x="-15000.0" y="0.0" end_time="17:00:00" >
			</activity>
			<leg mode="car">
			</leg>
			<activity type="h" x="-865.0" y="5925.0" start_time="18:00:00" >
			</activity>
		</plan>

	</person>

<!-- ====================================================================== -->

	<person id="reroute_11">
		<plan selected="yes">
			<activity type="h" x="-20000.0" y="0.0" end_time="06:00:00" >
			</activity>
			<leg mode="car">
			</leg>
			<activity type="w" x="-15000.0" y="0.0" end_time="17:00:00" >
			</activity>
			<leg mode="car">
			</leg>
			<activity type="h" x="-865.0" y="5925.0" start_time="18:00:00" >
			</activity>
		</plan>

	</person>

<!-- ====================================================================== -->

	<person id="reroute_12">
		<plan selected="yes">
			<activity type="h" x="-20000.0" y="0.0" end_time="06:00:00" >
			</activity>
			<leg mode="car">
			</leg>
			<activity type="w" x="-15000.0" y="0.0" end_time="17:00:00" >
			</activity>
			<leg mode="car">
			</leg>
			<activity type="h" x="-865.0" y="5925.0" start_time="18:00:00" >
			</activity>
		</plan>

	</person>

<!-- ====================================================================== -->

	<person id="reroute_13">
		<plan selected="yes">
			<activity type="h" x="-20000.0" y="0.0" end_time="06:00:00" >
			</activity>
			<leg mode="car">
			</leg>
			<activity type="w" x="-15000.0" y="0.0" end_time="17:00:00" >
			</activity>
			<leg mode="car">
			</leg>
			<activity type="h" x="-865.0" y="5925.0" start_time="18:00:00" >
			</activity>
		</plan>

	</person>

<!-- ====================================================================== -->

	<person id="reroute_14">
		<plan selected="yes">
			<activity type="h" x="-20000.0" y="0.0" end_time="06:00:00" >
			</activity>
			<leg mode="car">
			</leg>
			<activity type="w" x="-15000.0" y="0.0" end_time="17:00:00" >
			</activity>
			<leg mode="car">
			</leg>
			<activity type="h" x="-865.0" y="5925.0" start_time="18:00:00" >
			</activity>
		</plan>

	</person>

<!-- ====================================================================== -->

	<person id="reroute_15">
		<plan selected="yes">
			<activity type="h" x="-20000.0" y="0.0" end_time="06:00:00" >
			</activity>
			<leg mode="car">
			</leg>
			<activity type="w" x="-15000.0" y="0.0" end_time="17:00:00" >
			</activity>
			<leg mode="car">
			</leg>
			<activity type="h" x="-865.0" y="5925.0" start_time="18:00:00" >
			</activity>
		</plan>

	</person>

<!-- ====================================================================== -->

	<person id="reroute_16">
		<plan selected="yes">
			<activity type="h" x="-20000.0" y="0.0" end_time="06:00:00" >
			</activity>
			<leg mode="car">
			</leg>
			<activity type="w" x="-15000.0" y="0.0" end_time="17:00:00" >
			</activity>
			<leg mode="car">
			</leg>
			<activity type="h" x="-865.0" y="5925.0" start_time="18:00:00" >
			</activity>
		</plan>

	</person>

<!-- ====================================================================== -->

	<person id="reroute_17">
		<plan selected="yes">
			<activity type="h" x="-20000.0" y="0.0" end_time="06:00:00" >
			</activity>
			<leg mode="car">
			</leg>
			<activity type="w" x="-15000.0" y="0.0" end_time="17:00:00" >
			</activity>
			<leg mode="car">
			</leg>
			<activity type="h" x="-865.0" y="5925.0" start_time="18:00:00" >
			</activity>
		</plan>

	</person>

<!-- ====================================================================== -->

	<person id="reroute_18">
		<plan selected="yes">
			<activity type="h" x="-20000.0" y="0.0" end_time="06:00:00" >
			</activity>
			<leg mode="car">
			</leg>
			<activity type="w" x="-15000.0" y="0.0" end_time="17:00:00" >
			</activity>
			<leg mode="car">
			</leg>
			<activity type="h" x="-865.0" y="5925.0" start_time="18:00:00" >
			</activity>
		</plan>

	</person>

<!-- ====================================================================== -->

	<person id="reroute_19">
		<plan selected="yes">
			<activity type="h" x="-20000.0" y="0.0" end_time="06:00:00" >
			</activity>
			<leg mode="car">
			</leg>
			<activity type="w" x="-15000.0" y="0.0" end_time="17:00:00" >
			</activity>
			<leg mode="car">
			</leg>
			<activity type="h" x="-865.0" y="5925.0" start_time="18:00:00" >
			</activity>
		</plan>

	</person>

<!-- ====================================================================== -->

	<person id="reroute_2">
		<plan selected="yes">
			<activity type="h" x="-20000.0" y="0.0" end_time="06:00:00" >
			</activity>
			<leg mode="car">
			</leg>
			<activity type="w" x="-15000.0" y="0.0" end_time="17:00:00" >
			</activity>
			<leg mode="car">
			</leg>
			<activity type="h" x="-865.0" y="5925.0" start_time="18:00:00" >
			</activity>
		</plan>

	</person>

<!-- ====================================================================== -->

	<person id="reroute_20">
		<plan selected="yes">
			<activity type="h" x="-20000.0" y="0.0" end_time="06:00:00" >
			</activity>
			<leg mode="car">
			</leg>
			<activity type="w" x="-15000.0" y="0.0" end_time="17:00:00" >
			</activity>
			<leg mode="car">
			</leg>
			<activity type="h" x="-865.0" y="5925.0" start_time="18:00:00" >
			</activity>
		</plan>

	</person>

<!-- ====================================================================== -->

	<person id="reroute_21">
		<plan selected="yes">
			<activity type="h" x="-20000.0" y="0.0" end_time="06:00:00" >
			</activity>
			<leg mode="car">
			</leg>
			<activity type="w" x="-15000.0" y="0.0" end_time="17:00:00" >
			</activity>
			<leg mode="car">
			</leg>
			<activity type="h" x="-865.0" y="5925.0" start_time="18:00:00" >
			</activity>
		</plan>

	</person>

<!-- ====================================================================== -->

	<person id="reroute_22">
		<plan selected="yes">
			<activity type="h" x="-20000.0" y="0.0" end_time="06:00:00" >
			</activity>
			<leg mode="car">
			</leg>
			<activity type="w" x="-15000.0" y="0.0" end_time="17:00:00" >
			</activity>
			<leg mode="car">
			</leg>
			<activity type="h" x="-865.0" y="5925.0" start_time="18:00:00" >
			</activity>
		</plan>

	</person>

<!-- ====================================================================== -->

	<person id="reroute_23">
		<plan selected="yes">
			<activity type="h" x="-20000.0" y="0.0" end_time="06:00:00" >
			</activity>
			<leg mode="car">
			</leg>
			<activity type="w" x="-15000.0" y="0.0" end_time="17:00:00" >
			</activity>
			<leg mode="car">
			</leg>
			<activity type="h" x="-865.0" y="5925.0" start_time="18:00:00" >
			</activity>
		</plan>

	</person>

<!-- ====================================================================== -->

	<person id="reroute_24">
		<plan selected="yes">
			<activity type="h" x="-20000.0" y="0.0" end_time="06:00:00" >
			</activity>
			<leg mode="car">
			</leg>
			<activity type="w" x="-15000.0" y="0.0" end_time="17:00:00" >
			</activity>
			<leg mode="car">
			</leg>
			<activity type="h" x="-865.0" y="5925.0" start_time="18:00:00" >
			</activity>
		</plan>

	</person>

<!-- ====================================================================== -->

	<person id="reroute_25">
		<plan selected="yes">
			<activity type="h" x="-20000.0" y="0.0" end_time="06:00:00" >
			</activity>
			<leg mode="car">
			</leg>
			<activity type="w" x="-15000.0" y="0.0" end_time="17:00:00" >
			</activity>
			<leg mode="car">
			</leg>
			<activity type="h" x="-865.0" y="5925.0" start_time="18:00:00" >
			</activity>
		</plan>

	</person>

<!-- ====================================================================== -->

	<person id="reroute_26">
		<plan selected="yes">
			<activity type="h" x="-20000.0" y="0.0" end_time="06:00:00" >
			</activity>
			<leg mode="car">
			</leg>
			<activity type="w" x="-15000.0" y="0.0" end_time="17:00:00" >
			</activity>
			<leg mode="car">
			</leg>
			<activity type="h" x="-865.0" y="5925.0" start_time="18:00:00" >
			</activity>
		</plan>

	</person>

<!-- ====================================================================== -->

	<person id="reroute_27">
		<plan selected="yes">
			<activity type="h" x="-20000.0" y="0.0" end_time="06:00:00" >
			</activity>
			<leg mode="car">
			</leg>
			<activity type="w" x="-15000.0" y="0.0" end_time="17:00:00" >
			</activity>
			<leg mode="car">
			</leg>
			<activity type="h" x="-865.0" y="5925.0" start_time="18:00:00" >
			</activity>
		</plan>

	</person>

<!-- ====================================================================== -->

	<person id="reroute_28">
		<plan selected="yes">
			<activity type="h" x="-20000.0" y="0.0" end_time="06:00:00" >
			</activity>
			<leg mode="car">
			</leg>
			<activity type="w" x="-15000.0" y="0.0" end_time="17:00:00" >
			</activity>
			<leg mode="car">
			</leg>
			<activity type="h" x="-865.0" y="5925.0" start_time="18:00:00" >
			</activity>
		</plan>

	</person>

<!-- ====================================================================== -->

	<person id="reroute_29">
		<plan selected="yes">
			<activity type="h" x="-20000.0" y="0.0" end_time="06:00:00" >
			</activity>
			<leg mode="car">
			</leg>
			<activity type="w" x="-15000.0" y="0.0" end_time="17:00:00" >
			</activity>
			<leg mode="car">
			</leg>
			<activity type="h" x="-865.0" y="5925.0" start_time="18:00:00" >
			</activity>
		</plan>

	</person>

<!-- ====================================================================== -->

	<person id="reroute_3">
		<plan selected="yes">
			<activity type="h" x="-20000.0" y="0.0" end_time="06:00:00" >
			</activity>
			<leg mode="car">
			</leg>
			<activity type="w" x="-15000.0" y="0.0" end_time="17:00:00" >
			</activity>
			<leg mode="car">
			</leg>
			<activity type="h" x="-865.0" y="5925.0" start_time="18:00:00" >
			</activity>
		</plan>

	</person>

<!-- ====================================================================== -->

	<person id="reroute_30">
		<plan selected="yes">
			<activity type="h" x="-20000.0" y="0.0" end_time="06:00:00" >
			</activity>
			<leg mode="car">
			</leg>
			<activity type="w" x="-15000.0" y="0.0" end_time="17:00:00" >
			</activity>
			<leg mode="car">
			</leg>
			<activity type="h" x="-865.0" y="5925.0" start_time="18:00:00" >
			</activity>
		</plan>

	</person>

<!-- ====================================================================== -->

	<person id="reroute_31">
		<plan selected="yes">
			<activity type="h" x="-20000.0" y="0.0" end_time="06:00:00" >
			</activity>
			<leg mode="car">
			</leg>
			<activity type="w" x="-15000.0" y="0.0" end_time="17:00:00" >
			</activity>
			<leg mode="car">
			</leg>
			<activity type="h" x="-865.0" y="5925.0" start_time="18:00:00" >
			</activity>
		</plan>

	</person>

<!-- ====================================================================== -->

	<person id="reroute_32">
		<plan selected="yes">
			<activity type="h" x="-20000.0" y="0.0" end_time="06:00:00" >
			</activity>
			<leg mode="car">
			</leg>
			<activity type="w" x="-15000.0" y="0.0" end_time="17:00:00" >
			</activity>
			<leg mode="car">
			</leg>
			<activity type="h" x="-865.0" y="5925.0" start_time="18:00:00" >
			</activity>
		</plan>

	</person>

<!-- ====================================================================== -->

	<person id="reroute_33">
		<plan selected="yes">
			<activity type="h" x="-20000.0" y="0.0" end_time="06:00:00" >
			</activity>
			<leg mode="car">
			</leg>
			<activity type="w" x="-15000.0" y="0.0" end_time="17:00:00" >
			</activity>
			<leg mode="car">
			</leg>
			<activity type="h" x="-865.0" y="5925.0" start_time="18:00:00" >
			</activity>
		</plan>

	</person>

<!-- ====================================================================== -->

	<person id="reroute_34">
		<plan selected="yes">
			<activity type="h" x="-20000.0" y="0.0" end_time="06:00:00" >
			</activity>
			<leg mode="car">
			</leg>
			<activity type="w" x="-15000.0" y="0.0" end_time="17:00:00" >
			</activity>
			<leg mode="car">
			</leg>
			<activity type="h" x="-865.0" y="5925.0" start_time="18:00:00" >
			</activity>
		</plan>

	</person>

<!-- ====================================================================== -->

	<person id="reroute_35">
		<plan selected="yes">
			<activity type="h" x="-20000.0" y="0.0" end_time="06:00:00" >
			</activity>
			<leg mode="car">
			</leg>
			<activity type="w" x="-15000.0" y="0.0" end_time="17:00:00" >
			</activity>
			<leg mode="car">
			</leg>
			<activity type="h" x="-865.0" y="5925.0" start_time="18:00:00" >
			</activity>
		</plan>

	</person>

<!-- ====================================================================== -->

	<person id="reroute_36">
		<plan selected="yes">
			<activity type="h" x="-20000.0" y="0.0" end_time="06:00:00" >
			</activity>
			<leg mode="car">
			</leg>
			<activity type="w" x="-15000.0" y="0.0" end_time="17:00:00" >
			</activity>
			<leg mode="car">
			</leg>
			<activity type="h" x="-865.0" y="5925.0" start_time="18:00:00" >
			</activity>
		</plan>

	</person>

<!-- ====================================================================== -->

	<person id="reroute_37">
		<plan selected="yes">
			<activity type="h" x="-20000.0" y="0.0" end_time="06:00:00" >
			</activity>
			<leg mode="car">
			</leg>
			<activity type="w" x="-15000.0" y="0.0" end_time="17:00:00" >
			</activity>
			<leg mode="car">
			</leg>
			<activity type="h" x="-865.0" y="5925.0" start_time="18:00:00" >
			</activity>
		</plan>

	</person>

<!-- ====================================================================== -->

	<person id="reroute_38">
		<plan selected="yes">
			<activity type="h" x="-20000.0" y="0.0" end_time="06:00:00" >
			</activity>
			<leg mode="car">
			</leg>
			<activity type="w" x="-15000.0" y="0.0" end_time="17:00:00" >
			</activity>
			<leg mode="car">
			</leg>
			<activity type="h" x="-865.0" y="5925.0" start_time="18:00:00" >
			</activity>
		</plan>

	</person>

<!-- ====================================================================== -->

	<person id="reroute_39">
		<plan selected="yes">
			<activity type="h" x="-20000.0" y="0.0" end_time="06:00:00" >
			</activity>
			<leg mode="car">
			</leg>
			<activity type="w" x="-15000.0" y="0.0" end_time="17:00:00" >
			</activity>
			<leg mode="car">
			</leg>
			<activity type="h" x="-865.0" y="5925.0" start_time="18:00:00" >
			</activity>
		</plan>

	</person>

<!-- ====================================================================== -->

	<person id="reroute_4">
		<plan selected="yes">
			<activity type="h" x="-20000.0" y="0.0" end_time="06:00:00" >
			</activity>
			<leg mode="car">
			</leg>
			<activity type="w" x="-15000.0" y="0.0" end_time="17:00:00" >
			</activity>
			<leg mode="car">
			</leg>
			<activity type="h" x="-865.0" y="5925.0" start_time="18:00:00" >
			</activity>
		</plan>

	</person>

<!-- ====================================================================== -->

	<person id="reroute_40">
		<plan selected="yes">
			<activity type="h" x="-20000.0" y="0.0" end_time="06:00:00" >
			</activity>
			<leg mode="car">
			</leg>
			<activity type="w" x="-15000.0" y="0.0" end_time="17:00:00" >
			</activity>
			<leg mode="car">
			</leg>
			<activity type="h" x="-865.0" y="5925.0" start_time="18:00:00" >
			</activity>
		</plan>

	</person>

<!-- ====================================================================== -->

	<person id="reroute_41">
		<plan selected="yes">
			<activity type="h" x="-20000.0" y="0.0" end_time="06:00:00" >
			</activity>
			<leg mode="car">
			</leg>
			<activity type="w" x="-15000.0" y="0.0" end_time="17:00:00" >
			</activity>
			<leg mode="car">
			</leg>
			<activity type="h" x="-865.0" y="5925.0" start_time="18:00:00" >
			</activity>
		</plan>

	</person>

<!-- ====================================================================== -->

	<person id="reroute_42">
		<plan selected="yes">
			<activity type="h" x="-20000.0" y="0.0" end_time="06:00:00" >
			</activity>
			<leg mode="car">
			</leg>
			<activity type="w" x="-15000.0" y="0.0" end_time="17:00:00" >
			</activity>
			<leg mode="car">
			</leg>
			<activity type="h" x="-865.0" y="5925.0" start_time="18:00:00" >
			</activity>
		</plan>

	</person>

<!-- ====================================================================== -->

	<person id="reroute_43">
		<plan selected="yes">
			<activity type="h" x="-20000.0" y="0.0" end_time="06:00:00" >
			</activity>
			<leg mode="car">
			</leg>
			<activity type="w" x="-15000.0" y="0.0" end_time="17:00:00" >
			</activity>
			<leg mode="car">
			</leg>
			<activity type="h" x="-865.0" y="5925.0" start_time="18:00:00" >
			</activity>
		</plan>

	</person>

<!-- ====================================================================== -->

	<person id="reroute_44">
		<plan selected="yes">
			<activity type="h" x="-20000.0" y="0.0" end_time="06:00:00" >
			</activity>
			<leg mode="car">
			</leg>
			<activity type="w" x="-15000.0" y="0.0" end_time="17:00:00" >
			</activity>
			<leg mode="car">
			</leg>
			<activity type="h" x="-865.0" y="5925.0" start_time="18:00:00" >
			</activity>
		</plan>

	</person>

<!-- ====================================================================== -->

	<person id="reroute_45">
		<plan selected="yes">
			<activity type="h" x="-20000.0" y="0.0" end_time="06:00:00" >
			</activity>
			<leg mode="car">
			</leg>
			<activity type="w" x="-15000.0" y="0.0" end_time="17:00:00" >
			</activity>
			<leg mode="car">
			</leg>
			<activity type="h" x="-865.0" y="5925.0" start_time="18:00:00" >
			</activity>
		</plan>

	</person>

<!-- ====================================================================== -->

	<person id="reroute_46">
		<plan selected="yes">
			<activity type="h" x="-20000.0" y="0.0" end_time="06:00:00" >
			</activity>
			<leg mode="car">
			</leg>
			<activity type="w" x="-15000.0" y="0.0" end_time="17:00:00" >
			</activity>
			<leg mode="car">
			</leg>
			<activity type="h" x="-865.0" y="5925.0" start_time="18:00:00" >
			</activity>
		</plan>

	</person>

<!-- ====================================================================== -->

	<person id="reroute_47">
		<plan selected="yes">
			<activity type="h" x="-20000.0" y="0.0" end_time="06:00:00" >
			</activity>
			<leg mode="car">
			</leg>
			<activity type="w" x="-15000.0" y="0.0" end_time="17:00:00" >
			</activity>
			<leg mode="car">
			</leg>
			<activity type="h" x="-865.0" y="5925.0" start_time="18:00:00" >
			</activity>
		</plan>

	</person>

<!-- ====================================================================== -->

	<person id="reroute_48">
		<plan selected="yes">
			<activity type="h" x="-20000.0" y="0.0" end_time="06:00:00" >
			</activity>
			<leg mode="car">
			</leg>
			<activity type="w" x="-15000.0" y="0.0" end_time="17:00:00" >
			</activity>
			<leg mode="car">
			</leg>
			<activity type="h" x="-865.0" y="5925.0" start_time="18:00:00" >
			</activity>
		</plan>

	</person>

<!-- ====================================================================== -->

	<person id="reroute_49">
		<plan selected="yes">
			<activity type="h" x="-20000.0" y="0.0" end_time="06:00:00" >
			</activity>
			<leg mode="car">
			</leg>
			<activity type="w" x="-15000.0" y="0.0" end_time="17:00:00" >
			</activity>
			<leg mode="car">
			</leg>
			<activity type="h" x="-865.0" y="5925.0" start_time="18:00:00" >
			</activity>
		</plan>

	</person>

<!-- ====================================================================== -->

	<person id="reroute_5">
		<plan selected="yes">
			<activity type="h" x="-20000.0" y="0.0" end_time="06:00:00" >
			</activity>
			<leg mode="car">
			</leg>
			<activity type="w" x="-15000.0" y="0.0" end_time="17:00:00" >
			</activity>
			<leg mode="car">
			</leg>
			<activity type="h" x="-865.0" y="5925.0" start_time="18:00:00" >
			</activity>
		</plan>

	</person>

<!-- ====================================================================== -->

	<person id="reroute_50">
		<plan selected="yes">
			<activity type="h" x="-20000.0" y="0.0" end_time="06:00:00" >
			</activity>
			<leg mode="car">
			</leg>
			<activity type="w" x="-15000.0" y="0.0" end_time="17:00:00" >
			</activity>
			<leg mode="car">
			</leg>
			<activity type="h" x="-865.0" y="5925.0" start_time="18:00:00" >
			</activity>
		</plan>

	</person>

<!-- ====================================================================== -->

	<person id="reroute_51">
		<plan selected="yes">
			<activity type="h" x="-20000.0" y="0.0" end_time="06:00:00" >
			</activity>
			<leg mode="car">
			</leg>
			<activity type="w" x="-15000.0" y="0.0" end_time="17:00:00" >
			</activity>
			<leg mode="car">
			</leg>
			<activity type="h" x="-865.0" y="5925.0" start_time="18:00:00" >
			</activity>
		</plan>

	</person>

<!-- ====================================================================== -->

	<person id="reroute_52">
		<plan selected="yes">
			<activity type="h" x="-20000.0" y="0.0" end_time="06:00:00" >
			</activity>
			<leg mode="car">
			</leg>
			<activity type="w" x="-15000.0" y="0.0" end_time="17:00:00" >
			</activity>
			<leg mode="car">
			</leg>
			<activity type="h" x="-865.0" y="5925.0" start_time="18:00:00" >
			</activity>
		</plan>

	</person>

<!-- ====================================================================== -->

	<person id="reroute_53">
		<plan selected="yes">
			<activity type="h" x="-20000.0" y="0.0" end_time="06:00:00" >
			</activity>
			<leg mode="car">
			</leg>
			<activity type="w" x="-15000.0" y="0.0" end_time="17:00:00" >
			</activity>
			<leg mode="car">
			</leg>
			<activity type="h" x="-865.0" y="5925.0" start_time="18:00:00" >
			</activity>
		</plan>

	</person>

<!-- ====================================================================== -->

	<person id="reroute_54">
		<plan selected="yes">
			<activity type="h" x="-20000.0" y="0.0" end_time="06:00:00" >
			</activity>
			<leg mode="car">
			</leg>
			<activity type="w" x="-15000.0" y="0.0" end_time="17:00:00" >
			</activity>
			<leg mode="car">
			</leg>
			<activity type="h" x="-865.0" y="5925.0" start_time="18:00:00" >
			</activity>
		</plan>

	</person>

<!-- ====================================================================== -->

	<person id="reroute_55">
		<plan selected="yes">
			<activity type="h" x="-20000.0" y="0.0" end_time="06:00:00" >
			</activity>
			<leg mode="car">
			</leg>
			<activity type="w" x="-15000.0" y="0.0" end_time="17:00:00" >
			</activity>
			<leg mode="car">
			</leg>
			<activity type="h" x="-865.0" y="5925.0" start_time="18:00:00" >
			</activity>
		</plan>

	</person>

<!-- ====================================================================== -->

	<person id="reroute_56">
		<plan selected="yes">
			<activity type="h" x="-20000.0" y="0.0" end_time="06:00:00" >
			</activity>
			<leg mode="car">
			</leg>
			<activity type="w" x="-15000.0" y="0.0" end_time="17:00:00" >
			</activity>
			<leg mode="car">
			</leg>
			<activity type="h" x="-865.0" y="5925.0" start_time="18:00:00" >
			</activity>
		</plan>

	</person>

<!-- ====================================================================== -->

	<person id="reroute_57">
		<plan selected="yes">
			<activity type="h" x="-20000.0" y="0.0" end_time="06:00:00" >
			</activity>
			<leg mode="car">
			</leg>
			<activity type="w" x="-15000.0" y="0.0" end_time="17:00:00" >
			</activity>
			<leg mode="car">
			</leg>
			<activity type="h" x="-865.0" y="5925.0" start_time="18:00:00" >
			</activity>
		</plan>

	</person>

<!-- ====================================================================== -->

	<person id="reroute_58">
		<plan selected="yes">
			<activity type="h" x="-20000.0" y="0.0" end_time="06:00:00" >
			</activity>
			<leg mode="car">
			</leg>
			<activity type="w" x="-15000.0" y="0.0" end_time="17:00:00" >
			</activity>
			<leg mode="car">
			</leg>
			<activity type="h" x="-865.0" y="5925.0" start_time="18:00:00" >
			</activity>
		</plan>

	</person>

<!-- ====================================================================== -->

	<person id="reroute_59">
		<plan selected="yes">
			<activity type="h" x="-20000.0" y="0.0" end_time="06:00:00" >
			</activity>
			<leg mode="car">
			</leg>
			<activity type="w" x="-15000.0" y="0.0" end_time="17:00:00" >
			</activity>
			<leg mode="car">
			</leg>
			<activity type="h" x="-865.0" y="5925.0" start_time="18:00:00" >
			</activity>
		</plan>

	</person>

<!-- ====================================================================== -->

	<person id="reroute_6">
		<plan selected="yes">
			<activity type="h" x="-20000.0" y="0.0" end_time="06:00:00" >
			</activity>
			<leg mode="car">
			</leg>
			<activity type="w" x="-15000.0" y="0.0" end_time="17:00:00" >
			</activity>
			<leg mode="car">
			</leg>
			<activity type="h" x="-865.0" y="5925.0" start_time="18:00:00" >
			</activity>
		</plan>

	</person>

<!-- ====================================================================== -->

	<person id="reroute_60">
		<plan selected="yes">
			<activity type="h" x="-20000.0" y="0.0" end_time="06:00:00" >
			</activity>
			<leg mode="car">
			</leg>
			<activity type="w" x="-15000.0" y="0.0" end_time="17:00:00" >
			</activity>
			<leg mode="car">
			</leg>
			<activity type="h" x="-865.0" y="5925.0" start_time="18:00:00" >
			</activity>
		</plan>

	</person>

<!-- ====================================================================== -->

	<person id="reroute_61">
		<plan selected="yes">
			<activity type="h" x="-20000.0" y="0.0" end_time="06:00:00" >
			</activity>
			<leg mode="car">
			</leg>
			<activity type="w" x="-15000.0" y="0.0" end_time="17:00:00" >
			</activity>
			<leg mode="car">
			</leg>
			<activity type="h" x="-865.0" y="5925.0" start_time="18:00:00" >
			</activity>
		</plan>

	</person>

<!-- ====================================================================== -->

	<person id="reroute_62">
		<plan selected="yes">
			<activity type="h" x="-20000.0" y="0.0" end_time="06:00:00" >
			</activity>
			<leg mode="car">
			</leg>
			<activity type="w" x="-15000.0" y="0.0" end_time="17:00:00" >
			</activity>
			<leg mode="car">
			</leg>
			<activity type="h" x="-865.0" y="5925.0" start_time="18:00:00" >
			</activity>
		</plan>

	</person>

<!-- ====================================================================== -->

	<person id="reroute_63">
		<plan selected="yes">
			<activity type="h" x="-20000.0" y="0.0" end_time="06:00:00" >
			</activity>
			<leg mode="car">
			</leg>
			<activity type="w" x="-15000.0" y="0.0" end_time="17:00:00" >
			</activity>
			<leg mode="car">
			</leg>
			<activity type="h" x="-865.0" y="5925.0" start_time="18:00:00" >
			</activity>
		</plan>

	</person>

<!-- ====================================================================== -->

	<person id="reroute_64">
		<plan selected="yes">
			<activity type="h" x="-20000.0" y="0.0" end_time="06:00:00" >
			</activity>
			<leg mode="car">
			</leg>
			<activity type="w" x="-15000.0" y="0.0" end_time="17:00:00" >
			</activity>
			<leg mode="car">
			</leg>
			<activity type="h" x="-865.0" y="5925.0" start_time="18:00:00" >
			</activity>
		</plan>

	</person>

<!-- ====================================================================== -->

	<person id="reroute_65">
		<plan selected="yes">
			<activity type="h" x="-20000.0" y="0.0" end_time="06:00:00" >
			</activity>
			<leg mode="car">
			</leg>
			<activity type="w" x="-15000.0" y="0.0" end_time="17:00:00" >
			</activity>
			<leg mode="car">
			</leg>
			<activity type="h" x="-865.0" y="5925.0" start_time="18:00:00" >
			</activity>
		</plan>

	</person>

<!-- ====================================================================== -->

	<person id="reroute_66">
		<plan selected="yes">
			<activity type="h" x="-20000.0" y="0.0" end_time="06:00:00" >
			</activity>
			<leg mode="car">
			</leg>
			<activity type="w" x="-15000.0" y="0.0" end_time="17:00:00" >
			</activity>
			<leg mode="car">
			</leg>
			<activity type="h" x="-865.0" y="5925.0" start_time="18:00:00" >
			</activity>
		</plan>

	</person>

<!-- ====================================================================== -->

	<person id="reroute_67">
		<plan selected="yes">
			<activity type="h" x="-20000.0" y="0.0" end_time="06:00:00" >
			</activity>
			<leg mode="car">
			</leg>
			<activity type="w" x="-15000.0" y="0.0" end_time="17:00:00" >
			</activity>
			<leg mode="car">
			</leg>
			<activity type="h" x="-865.0" y="5925.0" start_time="18:00:00" >
			</activity>
		</plan>

	</person>

<!-- ====================================================================== -->

	<person id="reroute_68">
		<plan selected="yes">