<?xml version="1.0" encoding="utf-8"?>
<!DOCTYPE network SYSTEM "http://www.matsim.org/files/dtd/network_v1.dtd">

<network>

<!-- ====================================================================== -->

	<nodes>
		<node id="1016" x="651877.9615574211" y="9894353.372188037" type="" />
		<node id="1017" x="651877.9883011598" y="9894338.371750658" type="" />
		<node id="108" x="651369.8458166013" y="9894457.3477823" type="" />
		<node id="109" x="651529.6822747287" y="9894449.097800711" type="" />
		<node id="110" x="651590.8206169268" y="9893998.934825372" type="" />
		<node id="111" x="651617.6254363136" y="9893920.65299987" type="" />
		<node id="1141" x="651032.3706904626" y="9894777.839318858" type="" />
		<node id="1142" x="651080.6812641148" y="9894781.533656845" type="" />
		<node id="1159" x="651959.9146713762" y="9894738.561742445" type="" />
		<node id="1218687446" x="650643.6333954774" y="9893086.545714479" />
		<node id="1258" x="651336.4095028379" y="9893936.148156967" type="" />
		<node id="1259" x="651426.1192902742" y="9893948.945747368" type="" />
		<node id="14" x="650750.8912411397" y="9893072.091751771" type="" />
		<node id="1434" x="650827.7622576043" y="9894532.631357059" type="" />
		<node id="1435" x="650899.3352322943" y="9894544.947473196" type="" />
		<node id="15" x="650814.6128847561" y="9893080.585892014" type="" />
		<node id="1523759477" x="650918.7705162541" y="9893106.137946006" />
		<node id="1525" x="651180.2312776515" y="9893333.002598489" type="" />
		<node id="1526" x="650856.0897281279" y="9893209.83506863" type="" />
		<node id="1536" x="650742.400958485" y="9893451.705650443" type="" />
		<node id="1666" x="651731.7625579176" y="9894323.847290844" type="" />
		<node id="1667" x="651841.631818242" y="9894337.962845651" type="" />
		<node id="1702" x="651708.6986011952" y="9893707.333077371" type="" />
		<node id="1703" x="651668.948879824" y="9893675.926684214" type="" />
		<node id="1744" x="650604.1364869762" y="9894364.198357377" type="" />
		<node id="1783936654" x="651252.3423852436" y="9894266.122432264" />
		<node id="1785" x="650506.2036064712" y="9894719.768304372" type="" />
		<node id="1786" x="650522.7307583451" y="9894591.307460822" type="" />
		<node id="1800" x="651335.2578859956" y="9893614.327472586" type="" />
		<node id="1830" x="651350.456257175" y="9893199.836771177" type="" />
		<node id="1831" x="651257.5709277603" y="9893185.18283425" type="" />
		<node id="1835" x="651944.1993136425" y="9894284.743188914" type="" />
		<node id="1850" x="650835.3209471" y="9894759.0196751" type="" />
		<node id="1851" x="650816.90579007" y="9894651.22136189" type="" />
		<node id="1871" x="651491.5977179125" y="9894798.724217122" type="" />
		<node id="1927" x="650933.1260817953" y="9894550.42918205" type="" />
		<node id="1949" x="651948.2170616294" y="9894364.951640097" type="" />
		<node id="1991" x="651527.4804758066" y="9894473.806750618" type="" />
		<node id="1992" x="651583.9000000004" y="9894488.69" type="" />
		<node id="2023" x="652032.3015208275" y="9894752.619133024" type="" />
		<node id="2081" x="651952.7386061108" y="9894124.849225668" type="" />
		<node id="2082" x="652008.0318483467" y="9894060.959265394" type="" />
		<node id="2085" x="651730.4476531562" y="9893461.155722857" type="" />
		<node id="2132127921" x="650643.6333954774" y="9893086.545714479" />
		<node id="2135705889" x="651252.3423852436" y="9894266.122432264" />
		<node id="2164" x="651235.8313167212" y="9893225.644781282" type="" />
		<node id="2318" x="651771.1309797923" y="9894808.032776855" type="" />
		<node id="24" x="651545.0643186335" y="9894314.032725466" type="" />
		<node id="2456" x="650641.7187926451" y="9893787.3632298" type="" />
		<node id="2457" x="650677.7400065579" y="9893754.446388334" type="" />
		<node id="2459" x="651874.9726679964" y="9894607.940348037" type="" />
		<node id="2492" x="651580.450652457" y="9894334.603266297" type="" />
		<node id="25" x="651520.9002320583" y="9894248.655573254" type="" />
		<node id="2518" x="651522.7755123993" y="9894573.876731401" type="" />
		<node id="2519" x="651542.0666614437" y="9894592.716248833" type="" />
		<node id="2563" x="650920.1837097747" y="9894773.39408421" type="" />
		<node id="2610" x="651534.640179944" y="9894393.6865214" type="" />
		<node id="2674" x="651090.1825578798" y="9894782.260226367" type="" />
		<node id="2693" x="651504.6498486415" y="9894169.76702159" type="" />
		<node id="2694" x="651499.3748999764" y="9894121.509835392" type="" />
		<node id="2718" x="650792.2331780827" y="9894021.588577725" type="" />
		<node id="2757" x="651141.9782713545" y="9893778.290269814" type="" />
		<node id="2758" x="651150.3650780676" y="9893704.533010807" type="" />
		<node id="2816" x="651852.3345383743" y="9894039.854311347" type="" />
		<node id="2817" x="651847.2858341042" y="9894006.055486174" type="" />
		<node id="2828" x="651218.4699326784" y="9893828.127029164" type="" />
		<node id="2829" x="651316.5232665711" y="9893834.125176396" type="" />
		<node id="2830" x="650757.316326449" y="9893596.645485606" type="" />
		<node id="2831" x="650723.285462073" y="9893490.02962256" type="" />
		<node id="287" x="650852.3767725335" y="9894123.147251995" type="" />
		<node id="288" x="650893.2048460479" y="9894011.760464838" type="" />
		<node id="2916" x="651966.9946874483" y="9894677.005323226" type="" />
		<node id="2923" x="651407.8488938456" y="9893901.678567732" type="" />
		<node id="2924" x="651478.0507946337" y="9893855.100330032" type="" />
		<node id="2968" x="650990.4875965166" y="9894266.511187226" type="" />
		<node id="3107" x="650870.1410947209" y="9893611.315154295" type="" />
		<node id="3108" x="650901.469154402" y="9893598.472145038" type="" />
		<node id="3109" x="651020.3970956025" y="9894776.923691014" type="" />
		<node id="3148" x="651293.8689769482" y="9893255.492197951" type="" />
		<node id="3149" x="651329.0048193648" y="9893271.894893523" type="" />
		<node id="3208" x="651182.2863442044" y="9893338.05067661" type="" />
		<node id="3249" x="650905.2275515798" y="9893965.085922813" type="" />
		<node id="3263" x="651530.9436281044" y="9893881.49022298" type="" />
		<node id="3281" x="650478.328544347" y="9893297.342122886" type="" />
		<node id="3282" x="650480.697602251" y="9893474.4308168" type="" />
		<node id="3324" x="651589.2974396163" y="9894152.86893609" type="" />
		<node id="3325" x="651661.6630760807" y="9894130.460819075" type="" />
		<node id="3418" x="651315.5361379394" y="9893784.99585658" type="" />
		<node id="3419" x="651305.6972970774" y="9893722.144540558" type="" />
		<node id="3600" x="650522.6421642" y="9893553.129546044" type="" />
		<node id="3610" x="651621.6481085334" y="9893632.253810963" type="" />
		<node id="3611" x="651652.162836962" y="9893586.462485598" type="" />
		<node id="3718" x="651647.0966409006" y="9894684.006569738" type="" />
		<node id="3719" x="651537.6905280658" y="9894616.970739089" type="" />
		<node id="3729" x="651854.2415432674" y="9893770.549795978" type="" />
		<node id="3730" x="651921.1586470861" y="9893840.390437722" type="" />
		<node id="3849" x="650837.9000000004" y="9893298.69" type="" />
		<node id="390" x="651890.5557953054" y="9894261.398414208" type="" />
		<node id="391" x="651821.0189638513" y="9894180.188936394" type="" />
		<node id="3961" x="651356.6167007164" y="9893654.268882608" type="" />
		<node id="4046" x="650719.2153234741" y="9893544.146451017" type="" />
		<node id="4123" x="651576.1121105781" y="9893808.539281169" type="" />
		<node id="4124" x="651575.543905356" y="9893783.915321974" type="" />
		<node id="4127" x="651682.3565860894" y="9893540.002105892" type="" />
		<node id="4136" x="651474.0727691582" y="9894753.820646837" type="" />
		<node id="4145" x="651062.3140272718" y="9893484.836243588" type="" />
		<node id="4201" x="651963.7827242841" y="9894602.540589383" type="" />
		<node id="4202" x="651137.4959449279" y="9893799.824967386" type="" />
		<node id="4204" x="651767.5276810108" y="9893667.062318988" type="" />
		<node id="4263" x="651193.5703420979" y="9893341.747158678" type="" />
		<node id="4305" x="650749.8475108967" y="9893201.354193056" type="" />
		<node id="4353" x="651477.2650568767" y="9893340.803847106" type="" />
		<node id="4354" x="651502.9000000004" y="9893277.69" type="" />
		<node id="439" x="651777.3421537186" y="9893878.615540508" type="" />
		<node id="4392" x="650639.4713513798" y="9894609.093604688" type="" />
		<node id="4393" x="650687.1757407747" y="9894608.987195315" type="" />
		<node id="440" x="651874.344144419" y="9893947.108687593" type="" />
		<node id="4429" x="652002.9000000004" y="9894334.69" type="" />
		<node id="4608" x="651357.6022864323" y="9894425.1644835" type="" />
		<node id="461" x="651437.4787629264" y="9893969.102870353" type="" />
		<node id="462" x="651512.0127378124" y="9893974.256593086" type="" />
		<node id="4622" x="651878.4339964577" y="9894434.727674589" type="" />
		<node id="4625" x="651174.9819045528" y="9894003.434611185" type="" />
		<node id="4626" x="651274.1644830455" y="9894001.438472169" type="" />
		<node id="4682" x="651661.7873470607" y="9893798.846647857" type="" />
		<node id="4706" x="650606.386189275" y="9894488.596068252" type="" />
		<node id="4707" x="650667.1862676434" y="9894489.081783697" type="" />
		<node id="4756" x="650548.4429117653" y="9894484.397892151" type="" />
		<node id="4786" x="651775.6633748459" y="9894456.918982385" type="" />
		<node id="4787" x="651698.796024259" y="9894395.122891584" type="" />
		<node id="4895" x="650984.8979163601" y="9893596.59307643" type="" />
		<node id="4993" x="650771.9000000004" y="9893279.69" type="" />
		<node id="5021" x="651870.0955831942" y="9894522.56616518" type="" />
		<node id="5022" x="651950.8114429094" y="9894521.216124142" type="" />
		<node id="5046" x="650581.6333596834" y="9894598.756561268" type="" />
		<node id="5059" x="651640.4426633465" y="9893827.470761526" type="" />
		<node id="5070" x="650851.7329878431" y="9893890.913373858" type="" />
		<node id="5071" x="650911.9910457795" y="9893904.286475392" type="" />
		<node id="5111" x="650825.276738526" y="9894499.534184631" type="" />
		<node id="5118" x="651454.8547513675" y="9893424.278953452" type="" />
		<node id="518" x="651089.585443305" y="9894312.635250809" type="" />
		<node id="519" x="651100.2676216783" y="9894319.59930439" type="" />
		<node id="522" x="651396.8000109552" y="9894317.439726902" type="" />
		<node id="5220" x="651496.6785654444" y="9893738.784501811" type="" />
		<node id="5221" x="651471.9000000004" y="9893573.69" type="" />
		<node id="5241" x="651249.9000000004" y="9893609.69" type="" />
		<node id="5274" x="651025.3550656226" y="9894534.64666775" type="" />
		<node id="5275" x="651060.1787137389" y="9894526.565620499" type="" />
		<node id="5306" x="651168.9230143786" y="9893636.536971128" type="" />
		<node id="5308" x="651510.8267867152" y="9894552.230941327" type="" />
		<node id="531" x="650627.442824033" y="9893432.825758217" type="" />
		<node id="532" x="650628.205424815" y="9893424.78753857" type="" />
		<node id="5383" x="650657.9000000004" y="9894573.69" type="" />
		<node id="5405" x="651901.1375076786" y="9893909.994996928" type="" />
		<node id="5418" x="650840.1426813544" y="9893803.375153024" type="" />
		<node id="5419" x="650907.5433928511" y="9893692.451977583" type="" />
		<node id="5420" x="651947.88270862" y="9894231.604500398" type="" />
		<node id="5422" x="651303.9636931136" y="9893685.460741036" type="" />
		<node id="5450" x="651022.9281477522" y="9893131.69" type="" />
		<node id="550599320" x="650918.7705162541" y="9893106.137946006" />
		<node id="5518" x="651380.0069738908" y="9894722.69" type="" />
		<node id="5541" x="650711.5139884952" y="9894197.029383188" type="" />
		<node id="5542" x="650832.894248552" y="9894226.920859052" type="" />
		<node id="557" x="651480.9238810082" y="9894090.86458851" type="" />
		<node id="5605" x="651027.9000000004" y="9893940.69" type="" />
		<node id="5697" x="651675.2289232169" y="9893535.858815756" type="" />
		<node id="5757" x="651414.0589276276" y="9893311.233441655" type="" />
		<node id="5758" x="651434.4718441144" y="9893261.322372274" type="" />
		<node id="5760" x="650723.421164139" y="9893477.788302235" type="" />
		<node id="5833" x="651255.6676310807" y="9894274.451769585" type="" />
		<node id="589" x="651768.0312477049" y="9894066.0651733" type="" />
		<node id="590" x="651813.5204773769" y="9893993.509062927" type="" />
		<node id="5914" x="650536.3755498152" y="9893100.999677187" type="" />
		<node id="5939" x="651636.8319742855" y="9893512.123462366" type="" />
		<node id="5940" x="651530.5493610192" y="9893453.85922602" type="" />
		<node id="6027" x="651356.5634535528" y="9894763.072791316" type="" />
		<node id="6028" x="651377.8421313881" y="9894735.51252867" type="" />
		<node id="6040" x="651776.172868515" y="9894076.016043179" type="" />
		<node id="6041" x="651828.1889647829" y="9894105.280513363" type="" />
		<node id="6138" x="650692.9000000004" y="9894277.69" type="" />
		<node id="6186" x="651648.2869597" y="9894276.340368927" type="" />
		<node id="6187" x="651735.3810152247" y="9894310.684937393" type="" />
		<node id="6188" x="651295.9000000004" y="9894151.69" type="" />
		<node id="6189" x="651310.2836660204" y="9894089.757434364" type="" />
		<node id="6272" x="651746.5118690077" y="9894596.942387452" type="" />
		<node id="6288" x="651320.2307936256" y="9894017.494796077" type="" />
		<node id="6298" x="650995.151372142" y="9894775.328733562" type="" />
		<node id="6326" x="651665.2330903095" y="9894139.049942855" type="" />
		<node id="6327" x="651708.0966030417" y="9894116.74044017" type="" />
		<node id="6435" x="651526.1266836625" y="9893359.904233662" type="" />
		<node id="6518" x="650683.9000000004" y="9894362.69" type="" />
		<node id="6532" x="651092.5192662847" y="9894171.57561533" type="" />
		<node id="6547" x="650662.9000000004" y="9894270.69" type="" />
		<node id="6548" x="650673.2106463201" y="9894188.196446192" type="" />
		<node id="6556" x="650667.04158613" y="9894764.58875751" type="" />
		<node id="6573" x="651432.5018171547" y="9894225.548201079" type="" />
		<node id="6608" x="650859.3024876035" y="9894133.804906538" type="" />
		<node id="6630" x="652001.4462879716" y="9894486.012865596" type="" />
		<node id="6631" x="650953.9188570292" y="9893832.825972755" type="" />
		<node id="6632" x="651133.0264321719" y="9893886.036869332" type="" />
		<node id="6667" x="651332.3245012171" y="9894001.096963359" type="" />
		<node id="6675" x="650899.7184212975" y="9893818.829010379" type="" />
		<node id="6676" x="650932.7319264077" y="9893827.36229437" type="" />
		<node id="6711" x="651194.0047643547" y="9893893.20323265" type="" />
		<node id="6730" x="651973.9578110906" y="9894424.636289356" type="" />
		<node id="6746" x="651724.9162508325" y="9893950.031497004" type="" />
		<node id="6747" x="651754.1131513824" y="9893958.447760014" type="" />
		<node id="681" x="651140.6966235657" y="9893435.185577005" type="" />
		<node id="682" x="651200.1119385731" y="9893339.033934684" type="" />
		<node id="689" x="651090.4466161862" y="9894008.87130703" type="" />
		<node id="6898" x="651512.1546029" y="9894738.6071781" type="" />
		<node id="690" x="651099.5650010068" y="9893962.595504064" type="" />
		<node id="6983" x="651043.3890615591" y="9894687.10058316" type="" />
		<node id="6998" x="651249.0171394066" y="9894257.793094942" type="" />
		<node id="7051" x="651308.6274483401" y="9894623.097505344" type="" />
		<node id="7052" x="651261.5022828699" y="9894519.461840225" type="" />
		<node id="7082" x="651370.4163404361" y="9894786.708217453" type="" />
		<node id="7119" x="651390.322091661" y="9893834.885548094" type="" />
		<node id="7120" x="651393.1198232883" y="9893727.763622692" type="" />
		<node id="7139" x="651004.670363253" y="9894669.096240034" type="" />
		<node id="7140" x="651489.9465233645" y="9894732.809147099" type="" />
		<node id="7145" x="651750.3582147013" y="9894686.360961115" type="" />
		<node id="7162" x="651503.9000000004" y="9894750.69" type="" />
		<node id="7230" x="650675.9013384642" y="9894764.825017568" type="" />
		<node id="7259" x="651424.9000000004" y="9893582.69" type="" />
		<node id="7347" x="650803.0536377578" y="9893657.185958046" type="" />
		<node id="7353" x="651050.5044705487" y="9893487.596263187" type="" />
		<node id="7356" x="650684.9000000004" y="9894381.69" type="" />
		<node id="742" x="651350.4532006766" y="9894083.446824577" type="" />
		<node id="7420" x="651745.8540592485" y="9894242.397722749" type="" />
		<node id="75" x="651953.8993242877" y="9894790.085287323" type="" />
		<node id="7507" x="651346.9234464813" y="9894726.67005369" type="" />
		<node id="7560" x="651801.9844587283" y="9894162.171961404" type="" />
		<node id="7607" x="651596.7731355751" y="9893609.368038734" type="" />
		<node id="7610" x="651682.1854899656" y="9894180.90936609" type="" />
		<node id="7611" x="651745.9000000004" y="9894146.69" type="" />
		<node id="7620" x="650739.1446997626" y="9893784.269566301" type="" />
		<node id="7690" x="651964.2221719233" y="9894612.940850176" type="" />
		<node id="7694" x="650612.75489583" y="9894755.69937606" type="" />
		<node id="7698" x="651206.5240170344" y="9894104.065982966" type="" />
		<node id="7702" x="651960.9760659323" y="9893801.832191305" type="" />
		<node id="7705" x="650529.5462536643" y="9893321.335119873" type="" />
		<node id="7706" x="650665.9000000004" y="9893303.69" type="" />
		<node id="7745" x="651027.5438915399" y="9893504.234237056" type="" />
		<node id="7746" x="651217.6473442782" y="9893781.954372132" type="" />
		<node id="7764" x="650791.7058379239" y="9893859.325079463" type="" />
		<node id="7767" x="650722.9245522672" y="9893920.443508808" type="" />
		<node id="78" x="651328.5543507847" y="9893602.34892726" type="" />
		<node id="7841" x="650594.9000000004" y="9894561.69" type="" />
		<node id="7895" x="650809.1741101184" y="9893516.481905133" type="" />
		<node id="7896" x="650839.9000000004" y="9893435.69" type="" />
		<node id="79" x="651199.947815651" y="9893502.230839482" type="" />
		<node id="790" x="651648.3327423567" y="9894371.783587342" type="" />
		<node id="791" x="651632.6689919509" y="9894363.239723485" type="" />
		<node id="7962" x="651707.6149449701" y="9893621.351044612" type="" />
		<node id="8036" x="651367.0428675576" y="9893674.358363999" type="" />
		<node id="8151" x="650572.4334452" y="9893660.90841468" type="" />
		<node id="8181" x="651244.9000000004" y="9893733.69" type="" />
		<node id="8193" x="650623.1580533991" y="9893655.571876688" type="" />
		<node id="828" x="651251.5584166877" y="9894793.629079092" type="" />
		<node id="8297" x="650758.5550510745" y="9893688.833916673" type="" />
		<node id="8310" x="650972.974686279" y="9893552.69" type="" />
		<node id="8324" x="651520.6970755555" y="9893761.583477976" type="" />
		<node id="8328" x="651681.9000000004" y="9894048.69" type="" />
		<node id="8389" x="651920.389353125" y="9894108.711413538" type="" />
		<node id="84" x="651111.255127187" y="9893552.87974378" type="" />
		<node id="8445" x="650649.9000000004" y="9893264.69" type="" />
		<node id="8450" x="651900.2687515162" y="9893720.839998268" type="" />
		<node id="8468" x="651313.3221814128" y="9893191.21181977" type="" />
		<node id="8495" x="651677.9000000004" y="9894436.69" type="" />
		<node id="85" x="651069.1087272116" y="9893486.315487789" type="" />
		<node id="8565" x="650934.9736455622" y="9893670.97423629" type="" />
		<node id="8599" x="651781.4674475814" y="9894200.580167023" type="" />
		<node id="8606" x="650555.999278598" y="9894740.670830326" type="" />
		<node id="864" x="651960.5846457236" y="9894385.62149237" type="" />
		<node id="8707" x="651103.3037773683" y="9894699.89405411" type="" />
		<node id="8730" x="651425.9000000004" y="9893501.69" type="" />
		<node id="8855" x="651930.3653667625" y="9893858.885633029" type="" />
		<node id="8867" x="651790.9000000004" y="9894287.69" type="" />
		<node id="8900" x="651210.106133983" y="9894117.916835167" type="" />
		<node id="8976" x="650623.9000000004" y="9893661.69" type="" />
		<node id="9031" x="650897.9000000004" y="9893439.69" type="" />
		<node id="9062" x="651430.9000000004" y="9894548.69" type="" />
		<node id="9080" x="650708.9000000004" y="9894108.69" type="" />
		<node id="9108" x="651921.5533663655" y="9894754.914991196" type="" />
		<node id="9206" x="651542.9000000004" y="9893318.69" type="" />
		<node id="9266" x="651396.9000000004" y="9893550.69" type="" />
		<node id="9272" x="650720.9000000004" y="9893621.69" type="" />
		<node id="932" x="650599.327492505" y="9894039.275352448" type="" />
		<node id="933" x="650643.3168575821" y="9893806.43712746" type="" />
		<node id="942" x="650567.0396914821" y="9894347.04734879" type="" />
		<node id="943" x="650593.9022111362" y="9894192.16633828" type="" />
		<node id="en1" x="662433.0" y="9898853.0" />
		<node id="en2" x="662433.0" y="9898853.0" />
	</nodes>

<!-- ====================================================================== -->

	<links capperiod="00:00:01" effectivecellsize="0.26" effectivelanewidth="0.71">
		<link id="100007" from="15" to="14" length="67.3129070808462" freespeed="1.66" capacity="3.1627257846986336" permlanes="4.94054973057646" oneway="1" origid="7" type="" />
		<link id="100012" from="25" to="24" length="90.4119441476738" freespeed="1.66" capacity="6.448262467739127" permlanes="7.153629570733307" oneway="1" origid="12" type="" />
		<link id="100039" from="79" to="78" length="164.508326905826" freespeed="1.66" capacity="4.631163987322634" permlanes="10.470616485911751" oneway="1" origid="39" type="" />
		<link id="100042" from="85" to="84" length="83.0152997353781" freespeed="1.66" capacity="3.0171730471184652" permlanes="4.883937701918392" oneway="1" origid="42" type="" />
		<link id="100055" from="109" to="108" length="158.284356419093" freespeed="1.66" capacity="10.679055420573366" permlanes="12.492992515049226" oneway="1" origid="55" type="" />
		<link id="100056" from="111" to="110" length="87.7260523280937" freespeed="1.66" capacity="6.568559641748028" permlanes="7.2196369558405316" oneway="1" origid="56" type="" />
		<link id="10009" from="4124" to="1703" length="141.108870186258" freespeed="1.66" capacity="3.651832611036268" permlanes="4.356202949893606" oneway="1" origid="10009" type="" />
		<link id="100145" from="288" to="287" length="155.298426632748" freespeed="1.66" capacity="4.96362555560762" permlanes="9.000626779762625" oneway="1" origid="145" type="" />
		<link id="100198" from="391" to="390" length="110.880896275618" freespeed="1.66" capacity="5.993084897200282" permlanes="8.13625964882924" oneway="1" origid="198" type="" />
		<link id="100224" from="440" to="439" length="116.226193539805" freespeed="1.66" capacity="5.417695703617719" permlanes="5.679409719825093" oneway="1" origid="224" type="" />
		<link id="100235" from="462" to="461" length="78.2195181179589" freespeed="1.66" capacity="4.880829509610028" permlanes="7.143211166615842" oneway="1" origid="235" type="" />
		<link id="10024" from="7420" to="8599" length="60.0854554233109" freespeed="1.66" capacity="10.858453103883479" permlanes="14.2713833621129" oneway="1" origid="10024" type="" />
		<link id="100265" from="519" to="518" length="7.0" freespeed="1.66" capacity="10.332024118430184" permlanes="10.332024118430184" oneway="1" origid="265" type="" />
		<link id="100267" from="24" to="522" length="147.704407138442" freespeed="1.66" capacity="6.835501046318015" permlanes="8.557200562722079" oneway="1" origid="267" type="" />
		<link id="100272" from="532" to="531" length="8.54400374531753" freespeed="1.66" capacity="6.888552599228986" permlanes="6.888552599228986" oneway="1" origid="272" type="" />
		<link id="100286" from="461" to="557" length="135.10425102543" freespeed="1.66" capacity="6.787726804908015" permlanes="8.944755655731147" oneway="1" origid="286" type="" />
		<link id="10029" from="522" to="6573" length="104.232853872341" freespeed="1.66" capacity="9.0073766953471" permlanes="10.387019203674356" oneway="1" origid="10029" type="" />
		<link id="100303" from="590" to="589" length="82.9118384595722" freespeed="1.66" capacity="3.3549271268777323" permlanes="4.614411427161909" oneway="1" origid="303" type="" />
		<link id="100351" from="682" to="681" length="110.922875180115" freespeed="1.66" capacity="5.607360818368113" permlanes="10.154163566231649" oneway="1" origid="351" type="" />
		<link id="100355" from="690" to="689" length="49.6185988705968" freespeed="1.66" capacity="3.972483776243648" permlanes="4.661272019848629" oneway="1" origid="355" type="" />
		<link id="100383" from="557" to="742" length="136.253621998769" freespeed="1.66" capacity="3.50941883688662" permlanes="5.965460185201484" oneway="1" origid="383" type="" />
		<link id="1004" from="1850" to="1851" length="122.064027374564" freespeed="1.66" capacity="16.126527349981128" permlanes="16.287755675810114" oneway="1" origid="1004" type="" />
		<link id="100408" from="791" to="790" length="21.095023109729" freespeed="1.66" capacity="17.76924976974648" permlanes="17.76924976974648" oneway="1" origid="408" type="" />
		<link id="100484" from="933" to="932" length="236.021179055105" freespeed="1.66" capacity="6.7042194686591134" permlanes="7.761212797362873" oneway="1" origid="484" type="" />
		<link id="100490" from="943" to="942" length="173.59252686489" freespeed="1.66" capacity="8.998144448826634" permlanes="8.998144448826634" oneway="1" origid="490" type="" />
		<link id="100531" from="1017" to="1016" length="17.1192694480603" freespeed="1.66" capacity="5.756207707164465" permlanes="6.857842293248003" oneway="1" origid="531" type="" />
		<link id="100600" from="1142" to="1141" length="53.2353266168247" freespeed="1.66" capacity="13.50535303048979" permlanes="13.50535303048979" oneway="1" origid="600" type="" />
		<link id="100609" from="1159" to="75" length="52.9839481021133" freespeed="1.66" capacity="2.419062948875071" permlanes="2.873258536689249" oneway="1" origid="609" type="" />
		<link id="100662" from="1259" to="1258" length="86.911716774498" freespeed="1.66" capacity="7.910836883795043" permlanes="8.2541226084079" oneway="1" origid="662" type="" />
		<link id="10072" from="7764" to="5070" length="71.0630123452542" freespeed="1.66" capacity="4.44434245419724" permlanes="4.805257132913609" oneway="1" origid="10072" type="" />
		<link id="100759" from="1435" to="1434" length="71.4494303472919" freespeed="1.66" capacity="9.785429191189676" permlanes="11.680295643755526" oneway="1" origid="759" type="" />
		<link id="100809" from="1526" to="1525" length="348.736670548442" freespeed="1.66" capacity="11.47491306254707" permlanes="15.009777409428045" oneway="1" origid="809" type="" />
		<link id="100816" from="532" to="1536" length="189.033987376606" freespeed="1.66" capacity="5.235270415105394" permlanes="8.246635861660769" oneway="1" origid="816" type="" />
		<link id="100892" from="1667" to="1666" length="118.14331232698" freespeed="1.66" capacity="2.512490841179662" permlanes="6.446945239871159" oneway="1" origid="892" type="" />
		<link id="100912" from="1703" to="1702" length="54.8151229954782" freespeed="1.66" capacity="8.18474588279503" permlanes="9.180316591854837" oneway="1" origid="912" type="" />
		<link id="100938" from="942" to="1744" length="46.3093568030331" freespeed="1.66" capacity="8.266746075720986" permlanes="8.266746075720986" oneway="1" origid="938" type="" />
		<link id="100963" from="1786" to="1785" length="132.158899609448" freespeed="1.66" capacity="5.598237423826507" permlanes="5.789653760144596" oneway="1" origid="963" type="" />
		<link id="100971" from="1800" to="78" length="12.7279220613579" freespeed="1.66" capacity="6.607995332576169" permlanes="6.607995332576169" oneway="1" origid="971" type="" />
		<link id="10098" from="8867" to="8599" length="108.086007568525" freespeed="1.66" capacity="2.9273462160722397" permlanes="6.593718965342437" oneway="1" origid="10098" type="" />
		<link id="101004" from="1851" to="1850" length="122.064027374564" freespeed="1.66" capacity="16.126527349981128" permlanes="16.287755675810114" oneway="1" origid="1004" type="" />
		<link id="101054" from="1927" to="1435" length="41.8690224077595" freespeed="1.66" capacity="7.766759221118155" permlanes="8.763153737265752" oneway="1" origid="1054" type="" />
		<link id="101068" from="864" to="1949" length="23.43074902772" freespeed="1.66" capacity="4.8762011322908165" permlanes="5.088751971356946" oneway="1" origid="1068" type="" />
		<link id="101096" from="1992" to="1991" length="63.1506136153878" freespeed="1.66" capacity="5.9032977742055355" permlanes="5.9032977742055355" oneway="1" origid="1096" type="" />
		<link id="101114" from="2023" to="75" length="122.501462207675" freespeed="1.66" capacity="3.109139254371648" permlanes="4.716971102181669" oneway="1" origid="1114" type="" />
		<link id="101149" from="2082" to="2081" length="83.8546844356921" freespeed="1.66" capacity="5.407254200160141" permlanes="7.357692278809395" oneway="1" origid="1149" type="" />
		<link id="101204" from="1831" to="2164" length="45.6015621067812" freespeed="1.66" capacity="9.065498588890677" permlanes="9.065498588890677" oneway="1" origid="1204" type="" />
		<link id="101227" from="932" to="943" length="136.952201137495" freespeed="1.66" capacity="8.00053431888955" permlanes="8.115348360627722" oneway="1" origid="1227" type="" />
		<link id="10123" from="7560" to="6041" length="69.3881595561031" freespeed="1.66" capacity="7.253896696931606" permlanes="7.453702919105347" oneway="1" origid="10123" type="" />