<?xml version="1.0" encoding="utf-8"?>
<!DOCTYPE population SYSTEM "http://www.matsim.org/files/dtd/population_v5.dtd">

<population>

<!-- ====================================================================== -->

	<person id="0" age="30" employed="no">
		<plan selected="yes">
			<act type="home" x="0.0" y="0.0" end_time="08:00:00" />
			<leg mode="pt">
			</leg>
			<act type="work" x="0.0" y="200.0" end_time="17:00:00" />
			<leg mode="pt">
			</leg>
			<act type="home" x="0.0" y="0.0" end_time="24:00:00" />
		</plan>

	</person>

<!-- ====================================================================== -->

</population>
