<?xml version="1.0" encoding="UTF-8"?>
<!DOCTYPE plans SYSTEM "http://www.matsim.org/files/dtd/plans_v4.dtd">
<plans>
  <person id="516">
    <plan selected="no">
      <act end_time="00:08:35" type="h" link="12"/>
      <leg mode="car">
      </leg>
      <act type="h" link="78"/>
    </plan>
  </person>
  <person id="1549">
    <plan selected="no">
      <act end_time="00:25:48" type="h" link="12"/>
      <leg mode="car">
      </leg>
      <act type="h" link="78"/>
    </plan>
  </person>
  <person id="2582">
    <plan selected="no">
      <act end_time="00:43:01" type="h" link="12"/>
      <leg mode="car">
      </leg>
      <act type="h" link="78"/>
    </plan>
  </person>
  <person id="1033">
    <plan selected="no">
      <act end_time="00:17:12" type="h" link="12"/>
      <leg mode="car">
      </leg>
      <act type="h" link="78"/>
    </plan>
  </person>
  <person id="2066">
    <plan selected="no">
      <act end_time="00:34:25" type="h" link="12"/>
      <leg mode="car">
      </leg>
      <act type="h" link="78"/>
    </plan>
  </person>
  <person id="3099">
    <plan selected="no">
      <act end_time="00:51:38" type="h" link="12"/>
      <leg mode="car">
      </leg>
      <act type="h" link="78"/>
    </plan>
  </person>
  <person id="517">
    <plan selected="no">
      <act end_time="00:08:36" type="h" link="12"/>
      <leg mode="car">
      </leg>
      <act type="h" link="78"/>
    </plan>
  </person>
  <person id="1550">
    <plan selected="no">
      <act end_time="00:25:49" type="h" link="12"/>
      <leg mode="car">
      </leg>
      <act type="h" link="78"/>
    </plan>
  </person>
  <person id="2583">
    <plan selected="no">
      <act end_time="00:43:02" type="h" link="12"/>
      <leg mode="car">
      </leg>
      <act type="h" link="78"/>
    </plan>
  </person>
  <person id="1034">
    <plan selected="no">
      <act end_time="00:17:13" type="h" link="12"/>
      <leg mode="car">
      </leg>
      <act type="h" link="78"/>
    </plan>
  </person>
  <person id="2067">
    <plan selected="no">
      <act end_time="00:34:26" type="h" link="12"/>
      <leg mode="car">
      </leg>
      <act type="h" link="78"/>
    </plan>
  </person>
  <person id="3100">
    <plan selected="no">
      <act end_time="00:51:39" type="h" link="12"/>
      <leg mode="car">
      </leg>
      <act type="h" link="78"/>
    </plan>
  </person>
  <person id="1">
    <plan selected="no">
      <act end_time="00:00:00" type="h" link="12"/>
      <leg mode="car">
      </leg>
      <act type="h" link="78"/>
    </plan>
  </person>
  <person id="518">
    <plan selected="no">
      <act end_time="00:08:37" type="h" link="12"/>
      <leg mode="car">
      </leg>
      <act type="h" link="78"/>
    </plan>
  </person>
  <person id="1551">
    <plan selected="no">
      <act end_time="00:25:50" type="h" link="12"/>
      <leg mode="car">
      </leg>
      <act type="h" link="78"/>
    </plan>
  </person>
  <person id="2584">
    <plan selected="no">
      <act end_time="00:43:03" type="h" link="12"/>
      <leg mode="car">
      </leg>
      <act type="h" link="78"/>
    </plan>
  </person>
  <person id="1035">
    <plan selected="no">
      <act end_time="00:17:14" type="h" link="12"/>
      <leg mode="car">
      </leg>
      <act type="h" link="78"/>
    </plan>
  </person>
  <person id="2068">
    <plan selected="no">
      <act end_time="00:34:27" type="h" link="12"/>
      <leg mode="car">
      </leg>
      <act type="h" link="78"/>
    </plan>
  </person>
  <person id="3101">
    <plan selected="no">
      <act end_time="00:51:40" type="h" link="12"/>
      <leg mode="car">
      </leg>
      <act type="h" link="78"/>
    </plan>
  </person>
  <person id="2">
    <plan selected="no">
      <act end_time="00:00:01" type="h" link="12"/>
      <leg mode="car">
      </leg>
      <act type="h" link="78"/>
    </plan>
  </person>
  <person id="519">
    <plan selected="no">
      <act end_time="00:08:38" type="h" link="12"/>
      <leg mode="car">
      </leg>
      <act type="h" link="78"/>
    </plan>
  </person>
  <person id="1552">
    <plan selected="no">
      <act end_time="00:25:51" type="h" link="12"/>
      <leg mode="car">
      </leg>
      <act type="h" link="78"/>
    </plan>
  </person>
  <person id="2585">
    <plan selected="no">
      <act end_time="00:43:04" type="h" link="12"/>
      <leg mode="car">
      </leg>
      <act type="h" link="78"/>
    </plan>
  </person>
  <person id="1036">
    <plan selected="no">
      <act end_time="00:17:15" type="h" link="12"/>
      <leg mode="car">
      </leg>
      <act type="h" link="78"/>
    </plan>
  </person>
  <person id="2069">
    <plan selected="no">
      <act end_time="00:34:28" type="h" link="12"/>
      <leg mode="car">
      </leg>
      <act type="h" link="78"/>
    </plan>
  </person>
  <person id="3102">
    <plan selected="no">
      <act end_time="00:51:41" type="h" link="12"/>
      <leg mode="car">
      </leg>
      <act type="h" link="78"/>
    </plan>
  </person>
  <person id="3">
    <plan selected="no">
      <act end_time="00:00:02" type="h" link="12"/>
      <leg mode="car">
      </leg>
      <act type="h" link="78"/>
    </plan>
  </person>
  <person id="520">
    <plan selected="no">
      <act end_time="00:08:39" type="h" link="12"/>
      <leg mode="car">
      </leg>
      <act type="h" link="78"/>
    </plan>
  </person>
  <person id="1553">
    <plan selected="no">
      <act end_time="00:25:52" type="h" link="12"/>
      <leg mode="car">
      </leg>
      <act type="h" link="78"/>
    </plan>
  </person>
  <person id="2586">
    <plan selected="no">
      <act end_time="00:43:05" type="h" link="12"/>
      <leg mode="car">
      </leg>
      <act type="h" link="78"/>
    </plan>
  </person>
  <person id="1037">
    <plan selected="no">
      <act end_time="00:17:16" type="h" link="12"/>
      <leg mode="car">
      </leg>
      <act type="h" link="78"/>
    </plan>
  </person>
  <person id="2070">
    <plan selected="no">
      <act end_time="00:34:29" type="h" link="12"/>
      <leg mode="car">
      </leg>
      <act type="h" link="78"/>
    </plan>
  </person>
  <person id="3103">
    <plan selected="no">
      <act end_time="00:51:42" type="h" link="12"/>
      <leg mode="car">
      </leg>
      <act type="h" link="78"/>
    </plan>
  </person>
  <person id="4">
    <plan selected="no">
      <act end_time="00:00:03" type="h" link="12"/>
      <leg mode="car">
      </leg>
      <act type="h" link="78"/>
    </plan>
  </person>
  <person id="1554">
    <plan selected="no">
      <act end_time="00:25:53" type="h" link="12"/>
      <leg mode="car">
      </leg>
      <act type="h" link="78"/>
    </plan>
  </person>
  <person id="2587">
    <plan selected="no">
      <act end_time="00:43:06" type="h" link="12"/>
      <leg mode="car">
      </leg>
      <act type="h" link="78"/>
    </plan>
  </person>
  <person id="521">
    <plan selected="no">
      <act end_time="00:08:40" type="h" link="12"/>
      <leg mode="car">
      </leg>
      <act type="h" link="78"/>
    </plan>
  </person>
  <person id="1038">
    <plan selected="no">
      <act end_time="00:17:17" type="h" link="12"/>
      <leg mode="car">
      </leg>
      <act type="h" link="78"/>
    </plan>
  </person>
  <person id="2071">
    <plan selected="no">
      <act end_time="00:34:30" type="h" link="12"/>
      <leg mode="car">
      </leg>
      <act type="h" link="78"/>
    </plan>
  </person>
  <person id="3104">
    <plan selected="no">
      <act end_time="00:51:43" type="h" link="12"/>
      <leg mode="car">
      </leg>
      <act type="h" link="78"/>
    </plan>
  </person>
  <person id="5">
    <plan selected="no">
      <act end_time="00:00:04" type="h" link="12"/>
      <leg mode="car">
      </leg>
      <act type="h" link="78"/>
    </plan>
  </person>
  <person id="1555">
    <plan selected="no">
      <act end_time="00:25:54" type="h" link="12"/>
      <leg mode="car">
      </leg>
      <act type="h" link="78"/>
    </plan>
  </person>
  <person id="2588">
    <plan selected="no">
      <act end_time="00:43:07" type="h" link="12"/>
      <leg mode="car">
      </leg>
      <act type="h" link="78"/>
    </plan>
  </person>
  <person id="522">
    <plan selected="no">
      <act end_time="00:08:41" type="h" link="12"/>
      <leg mode="car">
      </leg>
      <act type="h" link="78"/>
    </plan>
  </person>
  <person id="1039">
    <plan selected="no">
      <act end_time="00:17:18" type="h" link="12"/>
      <leg mode="car">
      </leg>
      <act type="h" link="78"/>
    </plan>
  </person>
  <person id="2072">
    <plan selected="no">
      <act end_time="00:34:31" type="h" link="12"/>
      <leg mode="car">
      </leg>
      <act type="h" link="78"/>
    </plan>
  </person>
  <person id="3105">
    <plan selected="no">
      <act end_time="00:51:44" type="h" link="12"/>
      <leg mode="car">
      </leg>
      <act type="h" link="78"/>
    </plan>
  </person>
  <person id="6">
    <plan selected="no">
      <act end_time="00:00:05" type="h" link="12"/>
      <leg mode="car">
      </leg>
      <act type="h" link="78"/>
    </plan>
  </person>
  <person id="1556">
    <plan selected="no">
      <act end_time="00:25:55" type="h" link="12"/>
      <leg mode="car">
      </leg>
      <act type="h" link="78"/>
    </plan>
  </person>
  <person id="2589">
    <plan selected="no">
      <act end_time="00:43:08" type="h" link="12"/>
      <leg mode="car">
      </leg>
      <act type="h" link="78"/>
    </plan>
  </person>
  <person id="523">
    <plan selected="no">
      <act end_time="00:08:42" type="h" link="12"/>
      <leg mode="car">
      </leg>
      <act type="h" link="78"/>
    </plan>
  </person>
  <person id="1040">
    <plan selected="no">
      <act end_time="00:17:19" type="h" link="12"/>
      <leg mode="car">
      </leg>
      <act type="h" link="78"/>
    </plan>
  </person>
  <person id="2073">
    <plan selected="no">
      <act end_time="00:34:32" type="h" link="12"/>
      <leg mode="car">
      </leg>
      <act type="h" link="78"/>
    </plan>
  </person>
  <person id="3106">
    <plan selected="no">
      <act end_time="00:51:45" type="h" link="12"/>
      <leg mode="car">
      </leg>
      <act type="h" link="78"/>
    </plan>
  </person>
  <person id="7">
    <plan selected="no">
      <act end_time="00:00:06" type="h" link="12"/>
      <leg mode="car">
      </leg>
      <act type="h" link="78"/>
    </plan>
  </person>
  <person id="1557">
    <plan selected="no">
      <act end_time="00:25:56" type="h" link="12"/>
      <leg mode="car">
      </leg>
      <act type="h" link="78"/>
    </plan>
  </person>
  <person id="2590">
    <plan selected="no">
      <act end_time="00:43:09" type="h" link="12"/>
      <leg mode="car">
      </leg>
      <act type="h" link="78"/>
    </plan>
  </person>
  <person id="524">
    <plan selected="no">
      <act end_time="00:08:43" type="h" link="12"/>
      <leg mode="car">
      </leg>
      <act type="h" link="78"/>
    </plan>
  </person>
  <person id="1041">
    <plan selected="no">
      <act end_time="00:17:20" type="h" link="12"/>
      <leg mode="car">
      </leg>
      <act type="h" link="78"/>
    </plan>
  </person>
  <person id="2074">
    <plan selected="no">
      <act end_time="00:34:33" type="h" link="12"/>
      <leg mode="car">
      </leg>
      <act type="h" link="78"/>
    </plan>
  </person>
  <person id="3107">
    <plan selected="no">
      <act end_time="00:51:46" type="h" link="12"/>
      <leg mode="car">
      </leg>
      <act type="h" link="78"/>
    </plan>
  </person>
  <person id="8">
    <plan selected="no">
      <act end_time="00:00:07" type="h" link="12"/>
      <leg mode="car">
      </leg>
      <act type="h" link="78"/>
    </plan>
  </person>
  <person id="1558">
    <plan selected="no">
      <act end_time="00:25:57" type="h" link="12"/>
      <leg mode="car">
      </leg>
      <act type="h" link="78"/>
    </plan>
  </person>
  <person id="2591">
    <plan selected="no">
      <act end_time="00:43:10" type="h" link="12"/>
      <leg mode="car">
      </leg>
      <act type="h" link="78"/>
    </plan>
  </person>
  <person id="525">
    <plan selected="no">
      <act end_time="00:08:44" type="h" link="12"/>
      <leg mode="car">
      </leg>
      <act type="h" link="78"/>
    </plan>
  </person>
  <person id="2075">
    <plan selected="no">
      <act end_time="00:34:34" type="h" link="12"/>
      <leg mode="car">
      </leg>
      <act type="h" link="78"/>
    </plan>
  </person>
  <person id="3108">
    <plan selected="no">
      <act end_time="00:51:47" type="h" link="12"/>
      <leg mode="car">
      </leg>
      <act type="h" link="78"/>
    </plan>
  </person>
  <person id="9">
    <plan selected="no">
      <act end_time="00:00:08" type="h" link="12"/>
      <leg mode="car">
      </leg>
      <act type="h" link="78"/>
    </plan>
  </person>
  <person id="1042">
    <plan selected="no">
      <act end_time="00:17:21" type="h" link="12"/>
      <leg mode="car">
      </leg>
      <act type="h" link="78"/>
    </plan>
  </person>
  <person id="1559">
    <plan selected="no">
      <act end_time="00:25:58" type="h" link="12"/>
      <leg mode="car">
      </leg>
      <act type="h" link="78"/>
    </plan>
  </person>
  <person id="2592">
    <plan selected="no">
      <act end_time="00:43:11" type="h" link="12"/>
      <leg mode="car">
      </leg>
      <act type="h" link="78"/>
    </plan>
  </person>
  <person id="526">
    <plan selected="no">
      <act end_time="00:08:45" type="h" link="12"/>
      <leg mode="car">
      </leg>
      <act type="h" link="78"/>
    </plan>
  </person>
  <person id="2076">
    <plan selected="no">
      <act end_time="00:34:35" type="h" link="12"/>
      <leg mode="car">
      </leg>
      <act type="h" link="78"/>
    </plan>
  </person>
  <person id="3109">
    <plan selected="no">
      <act end_time="00:51:48" type="h" link="12"/>
      <leg mode="car">
      </leg>
      <act type="h" link="78"/>
    </plan>
  </person>
  <person id="10">
    <plan selected="no">
      <act end_time="00:00:09" type="h" link="12"/>
      <leg mode="car">
      </leg>
      <act type="h" link="78"/>
    </plan>
  </person>
  <person id="1043">
    <plan selected="no">
      <act end_time="00:17:22" type="h" link="12"/>
      <leg mode="car">
      </leg>
      <act type="h" link="78"/>
    </plan>
  </person>
  <person id="1560">
    <plan selected="no">
      <act end_time="00:25:59" type="h" link="12"/>
      <leg mode="car">
      </leg>
      <act type="h" link="78"/>
    </plan>
  </person>
  <person id="2593">
    <plan selected="no">
      <act end_time="00:43:12" type="h" link="12"/>
      <leg mode="car">
      </leg>
      <act type="h" link="78"/>
    </plan>
  </person>
  <person id="527">
    <plan selected="no">
      <act end_time="00:08:46" type="h" link="12"/>
      <leg mode="car">
      </leg>
      <act type="h" link="78"/>
    </plan>
  </person>
  <person id="2077">
    <plan selected="no">
      <act end_time="00:34:36" type="h" link="12"/>
      <leg mode="car">
      </leg>
      <act type="h" link="78"/>
    </plan>
  </person>
  <person id="3110">
    <plan selected="no">
      <act end_time="00:51:49" type="h" link="12"/>
      <leg mode="car">
      </leg>
      <act type="h" link="78"/>
    </plan>
  </person>
  <person id="11">
    <plan selected="no">
      <act end_time="00:00:10" type="h" link="12"/>
      <leg mode="car">
      </leg>
      <act type="h" link="78"/>
    </plan>
  </person>
  <person id="1044">
    <plan selected="no">
      <act end_time="00:17:23" type="h" link="12"/>
      <leg mode="car">
      </leg>
      <act type="h" link="78"/>
    </plan>
  </person>
  <person id="1561">
    <plan selected="no">
      <act end_time="00:26:00" type="h" link="12"/>
      <leg mode="car">
      </leg>
      <act type="h" link="78"/>
    </plan>
  </person>
  <person id="2594">
    <plan selected="no">
      <act end_time="00:43:13" type="h" link="12"/>
      <leg mode="car">
      </leg>
      <act type="h" link="78"/>
    </plan>
  </person>
  <person id="528">
    <plan selected="no">
      <act end_time="00:08:47" type="h" link="12"/>
      <leg mode="car">
      </leg>
      <act type="h" link="78"/>
    </plan>
  </person>
  <person id="2078">
    <plan selected="no">
      <act end_time="00:34:37" type="h" link="12"/>
      <leg mode="car">
      </leg>
      <act type="h" link="78"/>
    </plan>
  </person>
  <person id="3111">
    <plan selected="no">
      <act end_time="00:51:50" type="h" link="12"/>
      <leg mode="car">
      </leg>
      <act type="h" link="78"/>
    </plan>
  </person>
  <person id="12">
    <plan selected="no">
      <act end_time="00:00:11" type="h" link="12"/>
      <leg mode="car">
      </leg>
      <act type="h" link="78"/>
    </plan>
  </person>
  <person id="1045">
    <plan selected="no">
      <act end_time="00:17:24" type="h" link="12"/>
      <leg mode="car">
      </leg>
      <act type="h" link="78"/>
    </plan>
  </person>
  <person id="1562">
    <plan selected="no">
      <act end_time="00:26:01" type="h" link="12"/>
      <leg mode="car">
      </leg>
      <act type="h" link="78"/>
    </plan>
  </person>
  <person id="2595">
    <plan selected="no">
      <act end_time="00:43:14" type="h" link="12"/>
      <leg mode="car">
      </leg>
      <act type="h" link="78"/>
    </plan>
  </person>
  <person id="529">
    <plan selected="no">
      <act end_time="00:08:48" type="h" link="12"/>
      <leg mode="car">
      </leg>
      <act type="h" link="78"/>
    </plan>
  </person>
  <person id="2079">
    <plan selected="no">
      <act end_time="00:34:38" type="h" link="12"/>
      <leg mode="car">
      </leg>
      <act type="h" link="78"/>
    </plan>
  </person>
  <person id="3112">
    <plan selected="no">
      <act end_time="00:51:51" type="h" link="12"/>
      <leg mode="car">
      </leg>
      <act type="h" link="78"/>
    </plan>
  </person>
  <person id="13">
    <plan selected="no">
      <act end_time="00:00:12" type="h" link="12"/>
      <leg mode="car">
      </leg>
      <act type="h" link="78"/>
    </plan>
  </person>
  <person id="1046">
    <plan selected="no">
      <act end_time="00:17:25" type="h" link="12"/>
      <leg mode="car">
      </leg>
      <act type="h" link="78"/>
    </plan>
  </person>
  <person id="2596">
    <plan selected="no">
      <act end_time="00:43:15" type="h" link="12"/>
      <leg mode="car">
      </leg>
      <act type="h" link="78"/>
    </plan>
  </person>
  <person id="530">
    <plan selected="no">
      <act end_time="00:08:49" type="h" link="12"/>
      <leg mode="car">
      </leg>
      <act type="h" link="78"/>
    </plan>
  </person>
  <person id="1563">
    <plan selected="no">
      <act end_time="00:26:02" type="h" link="12"/>
      <leg mode="car">
      </leg>
      <act type="h" link="78"/>
    </plan>
  </person>
  <person id="2080">
    <plan selected="no">
      <act end_time="00:34:39" type="h" link="12"/>
      <leg mode="car">
      </leg>
      <act type="h" link="78"/>
    </plan>
  </person>
  <person id="3113">
    <plan selected="no">
      <act end_time="00:51:52" type="h" link="12"/>
      <leg mode="car">
      </leg>
      <act type="h" link="78"/>
    </plan>
  </person>
  <person id="14">
    <plan selected="no">
      <act end_time="00:00:13" type="h" link="12"/>
      <leg mode="car">
      </leg>
      <act type="h" link="78"/>
    </plan>
  </person>
  <person id="1047">
    <plan selected="no">
      <act end_time="00:17:26" type="h" link="12"/>
      <leg mode="car">
      </leg>
      <act type="h" link="78"/>
    </plan>
  </person>
  <person id="2597">
    <plan selected="no">
      <act end_time="00:43:16" type="h" link="12"/>
      <leg mode="car">
      </leg>
      <act type="h" link="78"/>
    </plan>
  </person>
  <person id="531">
    <plan selected="no">
      <act end_time="00:08:50" type="h" link="12"/>
      <leg mode="car">
      </leg>
      <act type="h" link="78"/>
    </plan>
  </person>
  <person id="1564">
    <plan selected="no">
      <act end_time="00:26:03" type="h" link="12"/>
      <leg mode="car">
      </leg>
      <act type="h" link="78"/>
    </plan>
  </person>
  <person id="2081">
    <plan selected="no">
      <act end_time="00:34:40" type="h" link="12"/>
      <leg mode="car">
      </leg>
      <act type="h" link="78"/>
    </plan>
  </person>
  <person id="3114">
    <plan selected="no">
      <act end_time="00:51:53" type="h" link="12"/>
      <leg mode="car">
      </leg>
      <act type="h" link="78"/>
    </plan>
  </person>
  <person id="15">
    <plan selected="no">
      <act end_time="00:00:14" type="h" link="12"/>
      <leg mode="car">
      </leg>
      <act type="h" link="78"/>
    </plan>
  </person>
  <person id="1048">
    <plan selected="no">
      <act end_time="00:17:27" type="h" link="12"/>
      <leg mode="car">
      </leg>
      <act type="h" link="78"/>
    </plan>
  </person>
  <person id="2598">
    <plan selected="no">
      <act end_time="00:43:17" type="h" link="12"/>
      <leg mode="car">
      </leg>
      <act type="h" link="78"/>
    </plan>
  </person>
  <person id="532">
    <plan selected="no">
      <act end_time="00:08:51" type="h" link="12"/>
      <leg mode="car">
      </leg>
      <act type="h" link="78"/>
    </plan>
  </person>
  <person id="1565">
    <plan selected="no">
      <act end_time="00:26:04" type="h" link="12"/>
      <leg mode="car">
      </leg>
      <act type="h" link="78"/>
    </plan>
  </person>
  <person id="2082">
    <plan selected="no">
      <act end_time="00:34:41" type="h" link="12"/>
      <leg mode="car">
      </leg>
      <act type="h" link="78"/>
    </plan>
  </person>
  <person id="3115">
    <plan selected="no">
      <act end_time="00:51:54" type="h" link="12"/>
      <leg mode="car">
      </leg>
      <act type="h" link="78"/>
    </plan>
  </person>
  <person id="16">
    <plan selected="no">
      <act end_time="00:00:15" type="h" link="12"/>
      <leg mode="car">
      </leg>
      <act type="h" link="78"/>
    </plan>
  </person>
  <person id="1049">
    <plan selected="no">
      <act end_time="00:17:28" type="h" link="12"/>
      <leg mode="car">
      </leg>
      <act type="h" link="78"/>
    </plan>
  </person>
  <person id="2599">
    <plan selected="no">
      <act end_time="00:43:18" type="h" link="12"/>
      <leg mode="car">
      </leg>
      <act type="h" link="78"/>
    </plan>
  </person>
  <person id="533">
    <plan selected="no">
      <act end_time="00:08:52" type="h" link="12"/>
      <leg mode="car">
      </leg>
      <act type="h" link="78"/>
    </plan>
  </person>
  <person id="1566">
    <plan selected="no">
      <act end_time="00:26:05" type="h" link="12"/>
      <leg mode="car">
      </leg>
      <act type="h" link="78"/>
    </plan>
  </person>
  <person id="2083">
    <plan selected="no">
      <act end_time="00:34:42" type="h" link="12"/>
      <leg mode="car">
      </leg>
      <act type="h" link="78"/>
    </plan>
  </person>
  <person id="3116">
    <plan selected="no">
      <act end_time="00:51:55" type="h" link="12"/>
      <leg mode="car">
      </leg>
      <act type="h" link="78"/>
    </plan>
  </person>
  <person id="17">
    <plan selected="no">
      <act end_time="00:00:16" type="h" link="12"/>
      <leg mode="car">
      </leg>
      <act type="h" link="78"/>
    </plan>
  </person>
  <person id="1050">
    <plan selected="no">
      <act end_time="00:17:29" type="h" link="12"/>
      <leg mode="car">
      </leg>
      <act type="h" link="78"/>
    </plan>
  </person>
  <person id="2600">
    <plan selected="no">
      <act end_time="00:43:19" type="h" link="12"/>
      <leg mode="car">
      </leg>
      <act type="h" link="78"/>
    </plan>
  </person>
  <person id="534">
    <plan selected="no">
      <act end_time="00:08:53" type="h" link="12"/>
      <leg mode="car">
      </leg>
      <act type="h" link="78"/>
    </plan>
  </person>
  <person id="1567">
    <plan selected="no">
      <act end_time="00:26:06" type="h" link="12"/>
      <leg mode="car">
      </leg>
      <act type="h" link="78"/>
    </plan>
  </person>
  <person id="3117">
    <plan selected="no">
      <act end_time="00:51:56" type="h" link="12"/>
      <leg mode="car">
      </leg>
      <act type="h" link="78"/>
    </plan>
  </person>
  <person id="18">
    <plan selected="no">
      <act end_time="00:00:17" type="h" link="12"/>
      <leg mode="car">
      </leg>
      <act type="h" link="78"/>
    </plan>
  </person>
  <person id="1051">
    <plan selected="no">
      <act end_time="00:17:30" type="h" link="12"/>
      <leg mode="car">
      </leg>
      <act type="h" link="78"/>
    </plan>
  </person>
  <person id="2084">
    <plan selected="no">
      <act end_time="00:34:43" type="h" link="12"/>
      <leg mode="car">
      </leg>
      <act type="h" link="78"/>
    </plan>
  </person>
  <person id="2601">
    <plan selected="no">
      <act end_time="00:43:20" type="h" link="12"/>
      <leg mode="car">
      </leg>
      <act type="h" link="78"/>
    </plan>
  </person>
  <person id="535">
    <plan selected="no">
      <act end_time="00:08:54" type="h" link="12"/>
      <leg mode="car">
      </leg>
      <act type="h" link="78"/>
    </plan>
  </person>
  <person id="1568">
    <plan selected="no">
      <act end_time="00:26:07" type="h" link="12"/>
      <leg mode="car">
      </leg>
      <act type="h" link="78"/>
    </plan>
  </person>
  <person id="3118">
    <plan selected="no">
      <act end_time="00:51:57" type="h" link="12"/>
      <leg mode="car">
      </leg>
      <act type="h" link="78"/>
    </plan>
  </person>
  <person id="19">
    <plan selected="no">
      <act end_time="00:00:18" type="h" link="12"/>
      <leg mode="car">
      </leg>
      <act type="h" link="78"/>
    </plan>
  </person>
  <person id="1052">
    <plan selected="no">
      <act end_time="00:17:31" type="h" link="12"/>
      <leg mode="car">
      </leg>
      <act type="h" link="78"/>
    </plan>
  </person>
  <person id="2085">
    <plan selected="no">
      <act end_time="00:34:44" type="h" link="12"/>
      <leg mode="car">
      </leg>
      <act type="h" link="78"/>
    </plan>
  </person>
  <person id="2602">
    <plan selected="no">
      <act end_time="00:43:21" type="h" link="12"/>
      <leg mode="car">
      </leg>
      <act type="h" link="78"/>
    </plan>
  </person>
  <person id="536">
    <plan selected="no">
      <act end_time="00:08:55" type="h" link="12"/>
      <leg mode="car">
      </leg>
      <act type="h" link="78"/>
    </plan>
  </person>
  <person id="1569">
    <plan selected="no">
      <act end_time="00:26:08" type="h" link="12"/>
      <leg mode="car">
      </leg>
      <act type="h" link="78"/>
    </plan>
  </person>
  <person id="3119">
    <plan selected="no">
      <act end_time="00:51:58" type="h" link="12"/>
      <leg mode="car">
      </leg>
      <act type="h" link="78"/>
    </plan>
  </person>
  <person id="20">
    <plan selected="no">
      <act end_time="00:00:19" type="h" link="12"/>
      <leg mode="car">
      </leg>
      <act type="h" link="78"/>
    </plan>
  </person>
  <person id="1053">
    <plan selected="no">
      <act end_time="00:17:32" type="h" link="12"/>
      <leg mode="car">
      </leg>
      <act type="h" link="78"/>
    </plan>
  </person>
  <person id="2086">
    <plan selected="no">
      <act end_time="00:34:45" type="h" link="12"/>
      <leg mode="car">
      </leg>
      <act type="h" link="78"/>
    </plan>
  </person>
  <person id="2603">
    <plan selected="no">
      <act end_time="00:43:22" type="h" link="12"/>
      <leg mode="car">
      </leg>
      <act type="h" link="78"/>
    </plan>
  </person>
  <person id="537">
    <plan selected="no">
      <act end_time="00:08:56" type="h" link="12"/>
      <leg mode="car">
      </leg>
      <act type="h" link="78"/>
    </plan>
  </person>
  <person id="1570">
    <plan selected="no">
      <act end_time="00:26:09" type="h" link="12"/>
      <leg mode="car">
      </leg>
      <act type="h" link="78"/>
    </plan>
  </person>
  <person id="3120">
    <plan selected="no">
      <act end_time="00:51:59" type="h" link="12"/>
      <leg mode="car">
      </leg>
      <act type="h" link="78"/>
    </plan>
  </person>
  <person id="21">
    <plan selected="no">
      <act end_time="00:00:20" type="h" link="12"/>
      <leg mode="car">
      </leg>
      <act type="h" link="78"/>
    </plan>
  </person>
  <person id="1054">
    <plan selected="no">
      <act end_time="00:17:33" type="h" link="12"/>
      <leg mode="car">
      </leg>
      <act type="h" link="78"/>
    </plan>
  </person>
  <person id="2087">
    <plan selected="no">
      <act end_time="00:34:46" type="h" link="12"/>
      <leg mode="car">
      </leg>
      <act type="h" link="78"/>
    </plan>
  </person>
  <person id="2604">
    <plan selected="no">
      <act end_time="00:43:23" type="h" link="12"/>
      <leg mode="car">
      </leg>
      <act type="h" link="78"/>
    </plan>
  </person>
  <person id="538">
    <plan selected="no">
      <act end_time="00:08:57" type="h" link="12"/>
      <leg mode="car">
      </leg>
      <act type="h" link="78"/>
    </plan>
  </person>
  <person id="1571">
    <plan selected="no">
      <act end_time="00:26:10" type="h" link="12"/>
      <leg mode="car">
      </leg>
      <act type="h" link="78"/>
    </plan>
  </person>
  <person id="3121">
    <plan selected="no">
      <act end_time="00:52:00" type="h" link="12"/>
      <leg mode="car">
      </leg>
      <act type="h" link="78"/>
    </plan>
  </person>
  <person id="22">
    <plan selected="no">
      <act end_time="00:00:21" type="h" link="12"/>
      <leg mode="car">