<?xml version="1.0" encoding="utf-8"?>
<!DOCTYPE population SYSTEM "http://www.matsim.org/files/dtd/population_v5.dtd">

<population>

<person id="person_0" employed="no">
		<plan selected="yes">
			<act type="home" x="-500.0" y="2000.0" end_time="08:00:00" />
			<leg mode="car">
			</leg>
			<act type="work" x="10500.0" y="2000.0" end_time="16:00:00" />
			<leg mode="car">
			</leg>
			<act type="home" x="-500.0" y="2000.0" end_time="08:00:00" />
		</plan>

	</person>

<!-- ====================================================================== -->

	<person id="person_1" employed="no">
		<plan selected="yes">
			<act type="home" x="-500.0" y="2000.0" end_time="08:00:01" />
			<leg mode="car">
			</leg>
			<act type="work" x="10500.0" y="2000.0" end_time="16:00:01" />
			<leg mode="car">
			</leg>
			<act type="home" x="-500.0" y="2000.0" end_time="08:00:01" />
		</plan>

	</person>

<!-- ====================================================================== -->

	<person id="person_10" employed="no">
		<plan selected="yes">
			<act type="home" x="-500.0" y="2000.0" end_time="08:00:10" />
			<leg mode="car">
			</leg>
			<act type="work" x="10500.0" y="2000.0" end_time="16:00:10" />
			<leg mode="car">
			</leg>
			<act type="home" x="-500.0" y="2000.0" end_time="08:00:10" />
		</plan>

	</person>

<!-- ====================================================================== -->

	<person id="person_100" employed="no">
		<plan selected="yes">
			<act type="home" x="-500.0" y="2000.0" end_time="08:01:40" />
			<leg mode="car">
			</leg>
			<act type="work" x="10500.0" y="2000.0" end_time="16:01:40" />
			<leg mode="car">
			</leg>
			<act type="home" x="-500.0" y="2000.0" end_time="08:01:40" />
		</plan>

	</person>

<!-- ====================================================================== -->

	<person id="person_101" employed="no">
		<plan selected="yes">
			<act type="home" x="-500.0" y="2000.0" end_time="08:01:41" />
			<leg mode="car">
			</leg>
			<act type="work" x="10500.0" y="2000.0" end_time="16:01:41" />
			<leg mode="car">
			</leg>
			<act type="home" x="-500.0" y="2000.0" end_time="08:01:41" />
		</plan>

	</person>

<!-- ====================================================================== -->

	<person id="person_102" employed="no">
		<plan selected="yes">
			<act type="home" x="-500.0" y="2000.0" end_time="08:01:42" />
			<leg mode="car">
			</leg>
			<act type="work" x="10500.0" y="2000.0" end_time="16:01:42" />
			<leg mode="car">
			</leg>
			<act type="home" x="-500.0" y="2000.0" end_time="08:01:42" />
		</plan>

	</person>

<!-- ====================================================================== -->

	<person id="person_103" employed="no">
		<plan selected="yes">
			<act type="home" x="-500.0" y="2000.0" end_time="08:01:43" />
			<leg mode="car">
			</leg>
			<act type="work" x="10500.0" y="2000.0" end_time="16:01:43" />
			<leg mode="car">
			</leg>
			<act type="home" x="-500.0" y="2000.0" end_time="08:01:43" />
		</plan>

	</person>

<!-- ====================================================================== -->

	<person id="person_104" employed="no">
		<plan selected="yes">
			<act type="home" x="-500.0" y="2000.0" end_time="08:01:44" />
			<leg mode="car">
			</leg>
			<act type="work" x="10500.0" y="2000.0" end_time="16:01:44" />
			<leg mode="car">
			</leg>
			<act type="home" x="-500.0" y="2000.0" end_time="08:01:44" />
		</plan>

	</person>

<!-- ====================================================================== -->

	<person id="person_105" employed="no">
		<plan selected="yes">
			<act type="home" x="-500.0" y="2000.0" end_time="08:01:45" />
			<leg mode="car">
			</leg>
			<act type="work" x="10500.0" y="2000.0" end_time="16:01:45" />
			<leg mode="car">
			</leg>
			<act type="home" x="-500.0" y="2000.0" end_time="08:01:45" />
		</plan>

	</person>

<!-- ====================================================================== -->

	<person id="person_106" employed="no">
		<plan selected="yes">
			<act type="home" x="-500.0" y="2000.0" end_time="08:01:46" />
			<leg mode="car">
			</leg>
			<act type="work" x="10500.0" y="2000.0" end_time="16:01:46" />
			<leg mode="car">
			</leg>
			<act type="home" x="-500.0" y="2000.0" end_time="08:01:46" />
		</plan>

	</person>

<!-- ====================================================================== -->

	<person id="person_107" employed="no">
		<plan selected="yes">
			<act type="home" x="-500.0" y="2000.0" end_time="08:01:47" />
			<leg mode="car">
			</leg>
			<act type="work" x="10500.0" y="2000.0" end_time="16:01:47" />
			<leg mode="car">
			</leg>
			<act type="home" x="-500.0" y="2000.0" end_time="08:01:47" />
		</plan>

	</person>

<!-- ====================================================================== -->

	<person id="person_108" employed="no">
		<plan selected="yes">
			<act type="home" x="-500.0" y="2000.0" end_time="08:01:48" />
			<leg mode="car">
			</leg>
			<act type="work" x="10500.0" y="2000.0" end_time="16:01:48" />
			<leg mode="car">
			</leg>
			<act type="home" x="-500.0" y="2000.0" end_time="08:01:48" />
		</plan>

	</person>

<!-- ====================================================================== -->

	<person id="person_109" employed="no">
		<plan selected="yes">
			<act type="home" x="-500.0" y="2000.0" end_time="08:01:49" />
			<leg mode="car">
			</leg>
			<act type="work" x="10500.0" y="2000.0" end_time="16:01:49" />
			<leg mode="car">
			</leg>
			<act type="home" x="-500.0" y="2000.0" end_time="08:01:49" />
		</plan>

	</person>

<!-- ====================================================================== -->

	<person id="person_11" employed="no">
		<plan selected="yes">
			<act type="home" x="-500.0" y="2000.0" end_time="08:00:11" />
			<leg mode="car">
			</leg>
			<act type="work" x="10500.0" y="2000.0" end_time="16:00:11" />
			<leg mode="car">
			</leg>
			<act type="home" x="-500.0" y="2000.0" end_time="08:00:11" />
		</plan>

	</person>

<!-- ====================================================================== -->

	<person id="person_110" employed="no">
		<plan selected="yes">
			<act type="home" x="-500.0" y="2000.0" end_time="08:01:50" />
			<leg mode="car">
			</leg>
			<act type="work" x="10500.0" y="2000.0" end_time="16:01:50" />
			<leg mode="car">
			</leg>
			<act type="home" x="-500.0" y="2000.0" end_time="08:01:50" />
		</plan>

	</person>

<!-- ====================================================================== -->

	<person id="person_111" employed="no">
		<plan selected="yes">
			<act type="home" x="-500.0" y="2000.0" end_time="08:01:51" />
			<leg mode="car">
			</leg>
			<act type="work" x="10500.0" y="2000.0" end_time="16:01:51" />
			<leg mode="car">
			</leg>
			<act type="home" x="-500.0" y="2000.0" end_time="08:01:51" />
		</plan>

	</person>

<!-- ====================================================================== -->

	<person id="person_112" employed="no">
		<plan selected="yes">
			<act type="home" x="-500.0" y="2000.0" end_time="08:01:52" />
			<leg mode="car">
			</leg>
			<act type="work" x="10500.0" y="2000.0" end_time="16:01:52" />
			<leg mode="car">
			</leg>
			<act type="home" x="-500.0" y="2000.0" end_time="08:01:52" />
		</plan>

	</person>

<!-- ====================================================================== -->

	<person id="person_113" employed="no">
		<plan selected="yes">
			<act type="home" x="-500.0" y="2000.0" end_time="08:01:53" />
			<leg mode="car">
			</leg>
			<act type="work" x="10500.0" y="2000.0" end_time="16:01:53" />
			<leg mode="car">
			</leg>
			<act type="home" x="-500.0" y="2000.0" end_time="08:01:53" />
		</plan>

	</person>

<!-- ====================================================================== -->

	<person id="person_114" employed="no">
		<plan selected="yes">
			<act type="home" x="-500.0" y="2000.0" end_time="08:01:54" />
			<leg mode="car">
			</leg>
			<act type="work" x="10500.0" y="2000.0" end_time="16:01:54" />
			<leg mode="car">
			</leg>
			<act type="home" x="-500.0" y="2000.0" end_time="08:01:54" />
		</plan>

	</person>

<!-- ====================================================================== -->

	<person id="person_115" employed="no">
		<plan selected="yes">
			<act type="home" x="-500.0" y="2000.0" end_time="08:01:55" />
			<leg mode="car">
			</leg>
			<act type="work" x="10500.0" y="2000.0" end_time="16:01:55" />
			<leg mode="car">
			</leg>
			<act type="home" x="-500.0" y="2000.0" end_time="08:01:55" />
		</plan>

	</person>

<!-- ====================================================================== -->

	<person id="person_116" employed="no">
		<plan selected="yes">
			<act type="home" x="-500.0" y="2000.0" end_time="08:01:56" />
			<leg mode="car">
			</leg>
			<act type="work" x="10500.0" y="2000.0" end_time="16:01:56" />
			<leg mode="car">
			</leg>
			<act type="home" x="-500.0" y="2000.0" end_time="08:01:56" />
		</plan>

	</person>

<!-- ====================================================================== -->

	<person id="person_117" employed="no">
		<plan selected="yes">
			<act type="home" x="-500.0" y="2000.0" end_time="08:01:57" />
			<leg mode="car">
			</leg>
			<act type="work" x="10500.0" y="2000.0" end_time="16:01:57" />
			<leg mode="car">
			</leg>
			<act type="home" x="-500.0" y="2000.0" end_time="08:01:57" />
		</plan>

	</person>

<!-- ====================================================================== -->

	<person id="person_118" employed="no">
		<plan selected="yes">
			<act type="home" x="-500.0" y="2000.0" end_time="08:01:58" />
			<leg mode="car">
			</leg>
			<act type="work" x="10500.0" y="2000.0" end_time="16:01:58" />
			<leg mode="car">
			</leg>
			<act type="home" x="-500.0" y="2000.0" end_time="08:01:58" />
		</plan>

	</person>

<!-- ====================================================================== -->

	<person id="person_119" employed="no">
		<plan selected="yes">
			<act type="home" x="-500.0" y="2000.0" end_time="08:01:59" />
			<leg mode="car">
			</leg>
			<act type="work" x="10500.0" y="2000.0" end_time="16:01:59" />
			<leg mode="car">
			</leg>
			<act type="home" x="-500.0" y="2000.0" end_time="08:01:59" />
		</plan>

	</person>

<!-- ====================================================================== -->

	<person id="person_12" employed="no">
		<plan selected="yes">
			<act type="home" x="-500.0" y="2000.0" end_time="08:00:12" />
			<leg mode="car">
			</leg>
			<act type="work" x="10500.0" y="2000.0" end_time="16:00:12" />
			<leg mode="car">
			</leg>
			<act type="home" x="-500.0" y="2000.0" end_time="08:00:12" />
		</plan>

	</person>

<!-- ====================================================================== -->

	<person id="person_120" employed="no">
		<plan selected="yes">
			<act type="home" x="-500.0" y="2000.0" end_time="08:02:00" />
			<leg mode="car">
			</leg>
			<act type="work" x="10500.0" y="2000.0" end_time="16:02:00" />
			<leg mode="car">
			</leg>
			<act type="home" x="-500.0" y="2000.0" end_time="08:02:00" />
		</plan>

	</person>

<!-- ====================================================================== -->

	<person id="person_121" employed="no">
		<plan selected="yes">
			<act type="home" x="-500.0" y="2000.0" end_time="08:02:01" />
			<leg mode="car">
			</leg>
			<act type="work" x="10500.0" y="2000.0" end_time="16:02:01" />
			<leg mode="car">
			</leg>
			<act type="home" x="-500.0" y="2000.0" end_time="08:02:01" />
		</plan>

	</person>

<!-- ====================================================================== -->

	<person id="person_122" employed="no">
		<plan selected="yes">
			<act type="home" x="-500.0" y="2000.0" end_time="08:02:02" />
			<leg mode="car">
			</leg>
			<act type="work" x="10500.0" y="2000.0" end_time="16:02:02" />
			<leg mode="car">
			</leg>
			<act type="home" x="-500.0" y="2000.0" end_time="08:02:02" />
		</plan>

	</person>

<!-- ====================================================================== -->

	<person id="person_123" employed="no">
		<plan selected="yes">
			<act type="home" x="-500.0" y="2000.0" end_time="08:02:03" />
			<leg mode="car">
			</leg>
			<act type="work" x="10500.0" y="2000.0" end_time="16:02:03" />
			<leg mode="car">
			</leg>
			<act type="home" x="-500.0" y="2000.0" end_time="08:02:03" />
		</plan>

	</person>

<!-- ====================================================================== -->

	<person id="person_124" employed="no">
		<plan selected="yes">
			<act type="home" x="-500.0" y="2000.0" end_time="08:02:04" />
			<leg mode="car">
			</leg>
			<act type="work" x="10500.0" y="2000.0" end_time="16:02:04" />
			<leg mode="car">
			</leg>
			<act type="home" x="-500.0" y="2000.0" end_time="08:02:04" />
		</plan>

	</person>

<!-- ====================================================================== -->

	<person id="person_125" employed="no">
		<plan selected="yes">
			<act type="home" x="-500.0" y="2000.0" end_time="08:02:05" />
			<leg mode="car">
			</leg>
			<act type="work" x="10500.0" y="2000.0" end_time="16:02:05" />
			<leg mode="car">
			</leg>
			<act type="home" x="-500.0" y="2000.0" end_time="08:02:05" />
		</plan>

	</person>

<!-- ====================================================================== -->

	<person id="person_126" employed="no">
		<plan selected="yes">
			<act type="home" x="-500.0" y="2000.0" end_time="08:02:06" />
			<leg mode="car">
			</leg>
			<act type="work" x="10500.0" y="2000.0" end_time="16:02:06" />
			<leg mode="car">
			</leg>
			<act type="home" x="-500.0" y="2000.0" end_time="08:02:06" />
		</plan>

	</person>

<!-- ====================================================================== -->

	<person id="person_127" employed="no">
		<plan selected="yes">
			<act type="home" x="-500.0" y="2000.0" end_time="08:02:07" />
			<leg mode="car">
			</leg>
			<act type="work" x="10500.0" y="2000.0" end_time="16:02:07" />
			<leg mode="car">
			</leg>
			<act type="home" x="-500.0" y="2000.0" end_time="08:02:07" />
		</plan>

	</person>

<!-- ====================================================================== -->

	<person id="person_128" employed="no">
		<plan selected="yes">
			<act type="home" x="-500.0" y="2000.0" end_time="08:02:08" />
			<leg mode="car">
			</leg>
			<act type="work" x="10500.0" y="2000.0" end_time="16:02:08" />
			<leg mode="car">
			</leg>
			<act type="home" x="-500.0" y="2000.0" end_time="08:02:08" />
		</plan>

	</person>

<!-- ====================================================================== -->

	<person id="person_129" employed="no">
		<plan selected="yes">
			<act type="home" x="-500.0" y="2000.0" end_time="08:02:09" />
			<leg mode="car">
			</leg>
			<act type="work" x="10500.0" y="2000.0" end_time="16:02:09" />
			<leg mode="car">
			</leg>
			<act type="home" x="-500.0" y="2000.0" end_time="08:02:09" />
		</plan>

	</person>

<!-- ====================================================================== -->

	<person id="person_13" employed="no">
		<plan selected="yes">
			<act type="home" x="-500.0" y="2000.0" end_time="08:00:13" />
			<leg mode="car">
			</leg>
			<act type="work" x="10500.0" y="2000.0" end_time="16:00:13" />
			<leg mode="car">
			</leg>
			<act type="home" x="-500.0" y="2000.0" end_time="08:00:13" />
		</plan>

	</person>

<!-- ====================================================================== -->

	<person id="person_130" employed="no">
		<plan selected="yes">
			<act type="home" x="-500.0" y="2000.0" end_time="08:02:10" />
			<leg mode="car">
			</leg>
			<act type="work" x="10500.0" y="2000.0" end_time="16:02:10" />
			<leg mode="car">
			</leg>
			<act type="home" x="-500.0" y="2000.0" end_time="08:02:10" />
		</plan>

	</person>

<!-- ====================================================================== -->

	<person id="person_131" employed="no">
		<plan selected="yes">
			<act type="home" x="-500.0" y="2000.0" end_time="08:02:11" />
			<leg mode="car">
			</leg>
			<act type="work" x="10500.0" y="2000.0" end_time="16:02:11" />
			<leg mode="car">
			</leg>
			<act type="home" x="-500.0" y="2000.0" end_time="08:02:11" />
		</plan>

	</person>

<!-- ====================================================================== -->

	<person id="person_132" employed="no">
		<plan selected="yes">
			<act type="home" x="-500.0" y="2000.0" end_time="08:02:12" />
			<leg mode="car">
			</leg>
			<act type="work" x="10500.0" y="2000.0" end_time="16:02:12" />
			<leg mode="car">
			</leg>
			<act type="home" x="-500.0" y="2000.0" end_time="08:02:12" />
		</plan>

	</person>

<!-- ====================================================================== -->

	<person id="person_133" employed="no">
		<plan selected="yes">
			<act type="home" x="-500.0" y="2000.0" end_time="08:02:13" />
			<leg mode="car">
			</leg>
			<act type="work" x="10500.0" y="2000.0" end_time="16:02:13" />
			<leg mode="car">
			</leg>
			<act type="home" x="-500.0" y="2000.0" end_time="08:02:13" />
		</plan>

	</person>

<!-- ====================================================================== -->

	<person id="person_134" employed="no">
		<plan selected="yes">
			<act type="home" x="-500.0" y="2000.0" end_time="08:02:14" />
			<leg mode="car">
			</leg>
			<act type="work" x="10500.0" y="2000.0" end_time="16:02:14" />
			<leg mode="car">
			</leg>
			<act type="home" x="-500.0" y="2000.0" end_time="08:02:14" />
		</plan>

	</person>

<!-- ====================================================================== -->

	<person id="person_135" employed="no">
		<plan selected="yes">
			<act type="home" x="-500.0" y="2000.0" end_time="08:02:15" />
			<leg mode="car">
			</leg>
			<act type="work" x="10500.0" y="2000.0" end_time="16:02:15" />
			<leg mode="car">
			</leg>
			<act type="home" x="-500.0" y="2000.0" end_time="08:02:15" />
		</plan>

	</person>

<!-- ====================================================================== -->

	<person id="person_136" employed="no">
		<plan selected="yes">
			<act type="home" x="-500.0" y="2000.0" end_time="08:02:16" />
			<leg mode="car">
			</leg>
			<act type="work" x="10500.0" y="2000.0" end_time="16:02:16" />
			<leg mode="car">
			</leg>
			<act type="home" x="-500.0" y="2000.0" end_time="08:02:16" />
		</plan>

	</person>

<!-- ====================================================================== -->

	<person id="person_137" employed="no">
		<plan selected="yes">
			<act type="home" x="-500.0" y="2000.0" end_time="08:02:17" />
			<leg mode="car">
			</leg>
			<act type="work" x="10500.0" y="2000.0" end_time="16:02:17" />
			<leg mode="car">
			</leg>
			<act type="home" x="-500.0" y="2000.0" end_time="08:02:17" />
		</plan>

	</person>

<!-- ====================================================================== -->

	<person id="person_138" employed="no">
		<plan selected="yes">
			<act type="home" x="-500.0" y="2000.0" end_time="08:02:18" />
			<leg mode="car">
			</leg>
			<act type="work" x="10500.0" y="2000.0" end_time="16:02:18" />
			<leg mode="car">
			</leg>
			<act type="home" x="-500.0" y="2000.0" end_time="08:02:18" />
		</plan>

	</person>

<!-- ====================================================================== -->

	<person id="person_139" employed="no">
		<plan selected="yes">
			<act type="home" x="-500.0" y="2000.0" end_time="08:02:19" />
			<leg mode="car">
			</leg>
			<act type="work" x="10500.0" y="2000.0" end_time="16:02:19" />
			<leg mode="car">
			</leg>
			<act type="home" x="-500.0" y="2000.0" end_time="08:02:19" />
		</plan>

	</person>

<!-- ====================================================================== -->

	<person id="person_14" employed="no">
		<plan selected="yes">
			<act type="home" x="-500.0" y="2000.0" end_time="08:00:14" />
			<leg mode="car">
			</leg>
			<act type="work" x="10500.0" y="2000.0" end_time="16:00:14" />
			<leg mode="car">
			</leg>
			<act type="home" x="-500.0" y="2000.0" end_time="08:00:14" />
		</plan>

	</person>

<!-- ====================================================================== -->

	<person id="person_140" employed="no">
		<plan selected="yes">
			<act type="home" x="-500.0" y="2000.0" end_time="08:02:20" />
			<leg mode="car">
			</leg>
			<act type="work" x="10500.0" y="2000.0" end_time="16:02:20" />
			<leg mode="car">
			</leg>
			<act type="home" x="-500.0" y="2000.0" end_time="08:02:20" />
		</plan>

	</person>

<!-- ====================================================================== -->

	<person id="person_141" employed="no">
		<plan selected="yes">
			<act type="home" x="-500.0" y="2000.0" end_time="08:02:21" />
			<leg mode="car">
			</leg>
			<act type="work" x="10500.0" y="2000.0" end_time="16:02:21" />
			<leg mode="car">
			</leg>
			<act type="home" x="-500.0" y="2000.0" end_time="08:02:21" />
		</plan>

	</person>

<!-- ====================================================================== -->

	<person id="person_142" employed="no">
		<plan selected="yes">
			<act type="home" x="-500.0" y="2000.0" end_time="08:02:22" />
			<leg mode="car">
			</leg>
			<act type="work" x="10500.0" y="2000.0" end_time="16:02:22" />
			<leg mode="car">
			</leg>
			<act type="home" x="-500.0" y="2000.0" end_time="08:02:22" />
		</plan>

	</person>

<!-- ====================================================================== -->

	<person id="person_143" employed="no">
		<plan selected="yes">
			<act type="home" x="-500.0" y="2000.0" end_time="08:02:23" />
			<leg mode="car">
			</leg>
			<act type="work" x="10500.0" y="2000.0" end_time="16:02:23" />
			<leg mode="car">
			</leg>
			<act type="home" x="-500.0" y="2000.0" end_time="08:02:23" />
		</plan>

	</person>

<!-- ====================================================================== -->

	<person id="person_144" employed="no">
		<plan selected="yes">
			<act type="home" x="-500.0" y="2000.0" end_time="08:02:24" />
			<leg mode="car">
			</leg>
			<act type="work" x="10500.0" y="2000.0" end_time="16:02:24" />
			<leg mode="car">
			</leg>
			<act type="home" x="-500.0" y="2000.0" end_time="08:02:24" />
		</plan>

	</person>

<!-- ====================================================================== -->

	<person id="person_145" employed="no">
		<plan selected="yes">
			<act type="home" x="-500.0" y="2000.0" end_time="08:02:25" />
			<leg mode="car">
			</leg>
			<act type="work" x="10500.0" y="2000.0" end_time="16:02:25" />
			<leg mode="car">
			</leg>
			<act type="home" x="-500.0" y="2000.0" end_time="08:02:25" />
		</plan>

	</person>

<!-- ====================================================================== -->

	<person id="person_146" employed="no">
		<plan selected="yes">
			<act type="home" x="-500.0" y="2000.0" end_time="08:02:26" />
			<leg mode="car">
			</leg>
			<act type="work" x="10500.0" y="2000.0" end_time="16:02:26" />
			<leg mode="car">
			</leg>
			<act type="home" x="-500.0" y="2000.0" end_time="08:02:26" />
		</plan>

	</person>

<!-- ====================================================================== -->

	<person id="person_147" employed="no">
		<plan selected="yes">
			<act type="home" x="-500.0" y="2000.0" end_time="08:02:27" />
			<leg mode="car">
			</leg>
			<act type="work" x="10500.0" y="2000.0" end_time="16:02:27" />
			<leg mode="car">
			</leg>
			<act type="home" x="-500.0" y="2000.0" end_time="08:02:27" />
		</plan>

	</person>

<!-- ====================================================================== -->

	<person id="person_148" employed="no">
		<plan selected="yes">
			<act type="home" x="-500.0" y="2000.0" end_time="08:02:28" />
			<leg mode="car">
			</leg>
			<act type="work" x="10500.0" y="2000.0" end_time="16:02:28" />
			<leg mode="car">
			</leg>
			<act type="home" x="-500.0" y="2000.0" end_time="08:02:28" />
		</plan>

	</person>

<!-- ====================================================================== -->

	<person id="person_149" employed="no">
		<plan selected="yes">
			<act type="home" x="-500.0" y="2000.0" end_time="08:02:29" />
			<leg mode="car">
			</leg>
			<act type="work" x="10500.0" y="2000.0" end_time="16:02:29" />
			<leg mode="car">
			</leg>
			<act type="home" x="-500.0" y="2000.0" end_time="08:02:29" />
		</plan>

	</person>

<!-- ====================================================================== -->

	<person id="person_15" employed="no">
		<plan selected="yes">
			<act type="home" x="-500.0" y="2000.0" end_time="08:00:15" />
			<leg mode="car">
			</leg>
			<act type="work" x="10500.0" y="2000.0" end_time="16:00:15" />
			<leg mode="car">
			</leg>
			<act type="home" x="-500.0" y="2000.0" end_time="08:00:15" />
		</plan>

	</person>

<!-- ====================================================================== -->

	<person id="person_150" employed="no">
		<plan selected="yes">
			<act type="home" x="-500.0" y="2000.0" end_time="08:02:30" />
			<leg mode="car">
			</leg>
			<act type="work" x="10500.0" y="2000.0" end_time="16:02:30" />
			<leg mode="car">
			</leg>
			<act type="home" x="-500.0" y="2000.0" end_time="08:02:30" />
		</plan>

	</person>

<!-- ====================================================================== -->

	<person id="person_151" employed="no">
		<plan selected="yes">
			<act type="home" x="-500.0" y="2000.0" end_time="08:02:31" />
			<leg mode="car">
			</leg>
			<act type="work" x="10500.0" y="2000.0" end_time="16:02:31" />
			<leg mode="car">
			</leg>
			<act type="home" x="-500.0" y="2000.0" end_time="08:02:31" />
		</plan>

	</person>

<!-- ====================================================================== -->

	<person id="person_152" employed="no">
		<plan selected="yes">
			<act type="home" x="-500.0" y="2000.0" end_time="08:02:32" />
			<leg mode="car">
			</leg>
			<act type="work" x="10500.0" y="2000.0" end_time="16:02:32" />
			<leg mode="car">
			</leg>
			<act type="home" x="-500.0" y="2000.0" end_time="08:02:32" />
		</plan>

	</person>

<!-- ====================================================================== -->

	<person id="person_153" employed="no">
		<plan selected="yes">
			<act type="home" x="-500.0" y="2000.0" end_time="08:02:33" />
			<leg mode="car">
			</leg>
			<act type="work" x="10500.0" y="2000.0" end_time="16:02:33" />
			<leg mode="car">
			</leg>
			<act type="home" x="-500.0" y="2000.0" end_time="08:02:33" />
		</plan>

	</person>

<!-- ====================================================================== -->

	<person id="person_154" employed="no">
		<plan selected="yes">
			<act type="home" x="-500.0" y="2000.0" end_time="08:02:34" />
			<leg mode="car">
			</leg>
			<act type="work" x="10500.0" y="2000.0" end_time="16:02:34" />
			<leg mode="car">
			</leg>
			<act type="home" x="-500.0" y="2000.0" end_time="08:02:34" />
		</plan>

	</person>

<!-- ====================================================================== -->

	<person id="person_155" employed="no">
		<plan selected="yes">
			<act type="home" x="-500.0" y="2000.0" end_time="08:02:35" />
			<leg mode="car">
			</leg>
			<act type="work" x="10500.0" y="2000.0" end_time="16:02:35" />
			<leg mode="car">
			</leg>
			<act type="home" x="-500.0" y="2000.0" end_time="08:02:35" />
		</plan>

	</person>

<!-- ====================================================================== -->

	<person id="person_156" employed="no">
		<plan selected="yes">
			<act type="home" x="-500.0" y="2000.0" end_time="08:02:36" />
			<leg mode="car">
			</leg>
			<act type="work" x="10500.0" y="2000.0" end_time="16:02:36" />
			<leg mode="car">
			</leg>
			<act type="home" x="-500.0" y="2000.0" end_time="08:02:36" />
		</plan>

	</person>

<!-- ====================================================================== -->

	<person id="person_157" employed="no">
		<plan selected="yes">
			<act type="home" x="-500.0" y="2000.0" end_time="08:02:37" />
			<leg mode="car">
			</leg>
			<act type="work" x="10500.0" y="2000.0" end_time="16:02:37" />
			<leg mode="car">
			</leg>
			<act type="home" x="-500.0" y="2000.0" end_time="08:02:37" />
		</plan>

	</person>

<!-- ====================================================================== -->

	<person id="person_158" employed="no">
		<plan selected="yes">
			<act type="home" x="-500.0" y="2000.0" end_time="08:02:38" />
			<leg mode="car">
			</leg>
			<act type="work" x="10500.0" y="2000.0" end_time="16:02:38" />
			<leg mode="car">
			</leg>
			<act type="home" x="-500.0" y="2000.0" end_time="08:02:38" />
		</plan>

	</person>

<!-- ====================================================================== -->

	<person id="person_159" employed="no">
		<plan selected="yes">
			<act type="home" x="-500.0" y="2000.0" end_time="08:02:39" />
			<leg mode="car">
			</leg>
			<act type="work" x="10500.0" y="2000.0" end_time="16:02:39" />
			<leg mode="car">
			</leg>
			<act type="home" x="-500.0" y="2000.0" end_time="08:02:39" />
		</plan>

	</person>

<!-- ====================================================================== -->

	<person id="person_16" employed="no">
		<plan selected="yes">
			<act type="home" x="-500.0" y="2000.0" end_time="08:00:16" />
			<leg mode="car">
			</leg>
			<act type="work" x="10500.0" y="2000.0" end_time="16:00:16" />
			<leg mode="car">
			</leg>
			<act type="home" x="-500.0" y="2000.0" end_time="08:00:16" />
		</plan>

	</person>

<!-- ====================================================================== -->

	<person id="person_160" employed="no">
		<plan selected="yes">
			<act type="home" x="-500.0" y="2000.0" end_time="08:02:40" />
			<leg mode="car">
			</leg>
			<act type="work" x="10500.0" y="2000.0" end_time="16:02:40" />
			<leg mode="car">
			</leg>
			<act type="home" x="-500.0" y="2000.0" end_time="08:02:40" />
		</plan>

	</person>

<!-- ====================================================================== -->

	<person id="person_161" employed="no">
		<plan selected="yes">
			<act type="home" x="-500.0" y="2000.0" end_time="08:02:41" />
			<leg mode="car">
			</leg>