<?xml version="1.0" encoding="utf-8"?>
<!DOCTYPE population SYSTEM "http://www.matsim.org/files/dtd/population_v6.dtd">

<population>


    <!-- ====================================================================== -->

    <person id="0">
        <plan selected="yes">
            <activity type="h" x="290625.48113156157" y="5885518.622230196" end_time="08:20:05">
            </activity>
            <leg mode="car">
            </leg>
            <activity type="h" x="468532.721161525" y="5728751.474117422">
            </activity>
        </plan>

    </person>

    <!-- ====================================================================== -->

    <person id="1">
        <plan selected="yes">
            <activity type="h" x="290625.48113156157" y="5885518.622230196" end_time="08:39:30">
            </activity>
            <leg mode="car">
            </leg>
            <activity type="h" x="468532.721161525" y="5728751.474117422">
            </activity>
        </plan>

    </person>

    <!-- ====================================================================== -->

    <person id="10">
        <plan selected="yes">
            <activity type="h" x="290625.48113156157" y="5885518.622230196" end_time="07:55:50">
            </activity>
            <leg mode="car">
            </leg>
            <activity type="h" x="468532.721161525" y="5728751.474117422">
            </activity>
        </plan>

    </person>

    <!-- ====================================================================== -->

    <person id="11">
        <plan selected="yes">
            <activity type="h" x="290625.48113156157" y="5885518.622230196" end_time="08:21:41">
            </activity>
            <leg mode="car">
            </leg>
            <activity type="h" x="468532.721161525" y="5728751.474117422">
            </activity>
        </plan>

    </person>

    <!-- ====================================================================== -->

    <person id="12">
        <plan selected="yes">
            <activity type="h" x="290625.48113156157" y="5885518.622230196" end_time="07:00:41">
            </activity>
            <leg mode="car">
            </leg>
            <activity type="h" x="468532.721161525" y="5728751.474117422">
            </activity>
        </plan>

    </person>

    <!-- ====================================================================== -->

    <person id="13">
        <plan selected="yes">
            <activity type="h" x="290625.48113156157" y="5885518.622230196" end_time="07:11:48">
            </activity>
            <leg mode="car">
            </leg>
            <activity type="h" x="468532.721161525" y="5728751.474117422">
            </activity>
        </plan>

    </person>

    <!-- ====================================================================== -->

    <person id="14">
        <plan selected="yes">
            <activity type="h" x="290625.48113156157" y="5885518.622230196" end_time="08:05:02">
            </activity>
            <leg mode="car">
            </leg>
            <activity type="h" x="468532.721161525" y="5728751.474117422">
            </activity>
        </plan>

    </person>

    <!-- ====================================================================== -->

    <person id="2">
        <plan selected="yes">
            <activity type="h" x="290625.48113156157" y="5885518.622230196" end_time="07:27:02">
            </activity>
            <leg mode="car">
            </leg>
            <activity type="h" x="468532.721161525" y="5728751.474117422">
            </activity>
        </plan>

    </person>

    <!-- ====================================================================== -->

    <person id="3">
        <plan selected="yes">
            <activity type="h" x="290625.48113156157" y="5885518.622230196" end_time="08:42:51">
            </activity>
            <leg mode="car">
            </leg>
            <activity type="h" x="468532.721161525" y="5728751.474117422">
            </activity>
        </plan>

    </person>

    <!-- ====================================================================== -->

    <person id="4">
        <plan selected="yes">
            <activity type="h" x="290625.48113156157" y="5885518.622230196" end_time="08:32:05">
            </activity>
            <leg mode="car">
            </leg>
            <activity type="h" x="468532.721161525" y="5728751.474117422">
            </activity>
        </plan>

    </person>

    <!-- ====================================================================== -->

    <person id="5">
        <plan selected="yes">
            <activity type="h" x="290625.48113156157" y="5885518.622230196" end_time="08:53:17">
            </activity>
            <leg mode="car">
            </leg>
            <activity type="h" x="468532.721161525" y="5728751.474117422">
            </activity>
        </plan>

    </person>

    <!-- ====================================================================== -->

    <person id="6">
        <plan selected="yes">
            <activity type="h" x="290625.48113156157" y="5885518.622230196" end_time="07:40:55">
            </activity>
            <leg mode="car">
            </leg>
            <activity type="h" x="468532.721161525" y="5728751.474117422">
            </activity>
        </plan>

    </person>

    <!-- ====================================================================== -->

    <person id="7">
        <plan selected="yes">
            <activity type="h" x="290625.48113156157" y="5885518.622230196" end_time="08:26:54">
            </activity>
            <leg mode="car">
            </leg>
            <activity type="h" x="468532.721161525" y="5728751.474117422">
            </activity>
        </plan>

    </person>

    <!-- ====================================================================== -->

    <person id="8">
        <plan selected="yes">
            <activity type="h" x="290625.48113156157" y="5885518.622230196" end_time="07:42:31">
            </activity>
            <leg mode="car">
            </leg>
            <activity type="h" x="468532.721161525" y="5728751.474117422">
            </activity>
        </plan>

    </person>

    <!-- ====================================================================== -->

    <person id="9">
        <plan selected="yes">
            <activity type="h" x="290625.48113156157" y="5885518.622230196" end_time="07:08:01">
            </activity>
            <leg mode="car">
            </leg>
            <activity type="h" x="468532.721161525" y="5728751.474117422">
            </activity>
        </plan>

    </person>

    <!-- ====================================================================== -->

</population>
