<?xml version="1.0" encoding="UTF-8"?>
<!DOCTYPE network SYSTEM "http://www.matsim.org/files/dtd/network_v1.dtd">
<network>

<!-- ====================================================================== -->

	<nodes>
		<node id="(0 0)" x="0" y="0" />
		<node id="(0 1)" x="0" y="1000" />
		<node id="(0 2)" x="0" y="2000" />
		<node id="(0 3)" x="0" y="3000" />
		<node id="(0 4)" x="0" y="4000" />
		<node id="(1 0)" x="1000" y="0" />
		<node id="(1 1)" x="1000" y="1000" />
		<node id="(1 2)" x="1000" y="2000" />
		<node id="(1 3)" x="1000" y="3000" />
		<node id="(1 4)" x="1000" y="4000" />
		<node id="(14 0)" x="14000" y="0" />
		<node id="(14 1)" x="14000" y="1000" />
		<node id="(14 2)" x="14000" y="2000" />
		<node id="(14 3)" x="14000" y="3000" />
		<node id="(14 4)" x="14000" y="4000" />
		<node id="(15 0)" x="15000" y="0" />
		<node id="(15 1)" x="15000" y="1000" />
		<node id="(15 2)" x="15000" y="2000" />
		<node id="(15 3)" x="15000" y="3000" />
		<node id="(15 4)" x="15000" y="4000" />
		<node id="(16 0)" x="16000" y="0" />
		<node id="(16 1)" x="16000" y="1000" />
		<node id="(16 2)" x="16000" y="2000" />
		<node id="(16 3)" x="16000" y="3000" />
		<node id="(16 4)" x="16000" y="4000" />
		<node id="(17 0)" x="17000" y="0" />
		<node id="(17 1)" x="17000" y="1000" />
		<node id="(17 2)" x="17000" y="2000" />
		<node id="(17 3)" x="17000" y="3000" />
		<node id="(17 4)" x="17000" y="4000" />
		<node id="(18 0)" x="18000" y="0" />
		<node id="(18 1)" x="18000" y="1000" />
		<node id="(18 2)" x="18000" y="2000" />
		<node id="(18 3)" x="18000" y="3000" />
		<node id="(18 4)" x="18000" y="4000" />
		<node id="(2 0)" x="2000" y="0" />
		<node id="(2 1)" x="2000" y="1000" />
		<node id="(2 2)" x="2000" y="2000" />
		<node id="(2 3)" x="2000" y="3000" />
		<node id="(2 4)" x="2000" y="4000" />
		<node id="(3 0)" x="3000" y="0" />
		<node id="(3 1)" x="3000" y="1000" />
		<node id="(3 2)" x="3000" y="2000" />
		<node id="(3 3)" x="3000" y="3000" />
		<node id="(3 4)" x="3000" y="4000" />
		<node id="(4 0)" x="4000" y="0" />
		<node id="(4 1)" x="4000" y="1000" />
		<node id="(4 2)" x="4000" y="2000" />
		<node id="(4 3)" x="4000" y="3000" />
		<node id="(4 4)" x="4000" y="4000" />
	</nodes>

<!-- ====================================================================== -->

	<links capperiod="01:00:00" effectivecellsize="7.5" effectivelanewidth="3.75">
		<link id="(0 0) (0 1)" from="(0 0)" to="(0 1)" length="1000.0" freespeed="7.5" capacity="1000.0" permlanes="1.0" oneway="1" modes="car" />
		<link id="(0 0) (1 0)" from="(0 0)" to="(1 0)" length="1000.0" freespeed="7.5" capacity="1000.0" permlanes="1.0" oneway="1" modes="car" />
		<link id="(0 1) (0 0)" from="(0 1)" to="(0 0)" length="1000.0" freespeed="7.5" capacity="1000.0" permlanes="1.0" oneway="1" modes="car" />
		<link id="(0 1) (0 2)" from="(0 1)" to="(0 2)" length="1000.0" freespeed="7.5" capacity="1000.0" permlanes="1.0" oneway="1" modes="car" />
		<link id="(0 1) (1 1)" from="(0 1)" to="(1 1)" length="1000.0" freespeed="7.5" capacity="1000.0" permlanes="1.0" oneway="1" modes="car" />
		<link id="(0 2) (0 1)" from="(0 2)" to="(0 1)" length="1000.0" freespeed="7.5" capacity="1000.0" permlanes="1.0" oneway="1" modes="car" />
		<link id="(0 2) (0 3)" from="(0 2)" to="(0 3)" length="1000.0" freespeed="7.5" capacity="1000.0" permlanes="1.0" oneway="1" modes="car" />
		<link id="(0 2) (1 2)" from="(0 2)" to="(1 2)" length="1000.0" freespeed="7.5" capacity="1000.0" permlanes="1.0" oneway="1" modes="car" />
		<link id="(0 3) (0 2)" from="(0 3)" to="(0 2)" length="1000.0" freespeed="7.5" capacity="1000.0" permlanes="1.0" oneway="1" modes="car" />
		<link id="(0 3) (0 4)" from="(0 3)" to="(0 4)" length="1000.0" freespeed="7.5" capacity="1000.0" permlanes="1.0" oneway="1" modes="car" />
		<link id="(0 3) (1 3)" from="(0 3)" to="(1 3)" length="1000.0" freespeed="7.5" capacity="1000.0" permlanes="1.0" oneway="1" modes="car" />
		<link id="(0 4) (0 3)" from="(0 4)" to="(0 3)" length="1000.0" freespeed="7.5" capacity="1000.0" permlanes="1.0" oneway="1" modes="car" />
		<link id="(0 4) (1 4)" from="(0 4)" to="(1 4)" length="1000.0" freespeed="7.5" capacity="1000.0" permlanes="1.0" oneway="1" modes="car" />
		<link id="(1 0) (0 0)" from="(1 0)" to="(0 0)" length="1000.0" freespeed="7.5" capacity="1000.0" permlanes="1.0" oneway="1" modes="car" />
		<link id="(1 0) (1 1)" from="(1 0)" to="(1 1)" length="1000.0" freespeed="7.5" capacity="1000.0" permlanes="1.0" oneway="1" modes="car" />
		<link id="(1 0) (2 0)" from="(1 0)" to="(2 0)" length="1000.0" freespeed="7.5" capacity="1000.0" permlanes="1.0" oneway="1" modes="car" />
		<link id="(1 1) (0 1)" from="(1 1)" to="(0 1)" length="1000.0" freespeed="7.5" capacity="1000.0" permlanes="1.0" oneway="1" modes="car" />
		<link id="(1 1) (1 0)" from="(1 1)" to="(1 0)" length="1000.0" freespeed="7.5" capacity="1000.0" permlanes="1.0" oneway="1" modes="car" />
		<link id="(1 1) (1 2)" from="(1 1)" to="(1 2)" length="1000.0" freespeed="7.5" capacity="1000.0" permlanes="1.0" oneway="1" modes="car" />
		<link id="(1 1) (2 1)" from="(1 1)" to="(2 1)" length="1000.0" freespeed="7.5" capacity="1000.0" permlanes="1.0" oneway="1" modes="car" />
		<link id="(1 2) (0 2)" from="(1 2)" to="(0 2)" length="1000.0" freespeed="7.5" capacity="1000.0" permlanes="1.0" oneway="1" modes="car" />
		<link id="(1 2) (1 1)" from="(1 2)" to="(1 1)" length="1000.0" freespeed="7.5" capacity="1000.0" permlanes="1.0" oneway="1" modes="car" />
		<link id="(1 2) (1 3)" from="(1 2)" to="(1 3)" length="1000.0" freespeed="7.5" capacity="1000.0" permlanes="1.0" oneway="1" modes="car" />
		<link id="(1 2) (2 2)" from="(1 2)" to="(2 2)" length="1000.0" freespeed="7.5" capacity="1000.0" permlanes="1.0" oneway="1" modes="car" />
		<link id="(1 3) (0 3)" from="(1 3)" to="(0 3)" length="1000.0" freespeed="7.5" capacity="1000.0" permlanes="1.0" oneway="1" modes="car" />
		<link id="(1 3) (1 2)" from="(1 3)" to="(1 2)" length="1000.0" freespeed="7.5" capacity="1000.0" permlanes="1.0" oneway="1" modes="car" />
		<link id="(1 3) (1 4)" from="(1 3)" to="(1 4)" length="1000.0" freespeed="7.5" capacity="1000.0" permlanes="1.0" oneway="1" modes="car" />
		<link id="(1 3) (2 3)" from="(1 3)" to="(2 3)" length="1000.0" freespeed="7.5" capacity="1000.0" permlanes="1.0" oneway="1" modes="car" />
		<link id="(1 4) (0 4)" from="(1 4)" to="(0 4)" length="1000.0" freespeed="7.5" capacity="1000.0" permlanes="1.0" oneway="1" modes="car" />
		<link id="(1 4) (1 3)" from="(1 4)" to="(1 3)" length="1000.0" freespeed="7.5" capacity="1000.0" permlanes="1.0" oneway="1" modes="car" />
		<link id="(1 4) (2 4)" from="(1 4)" to="(2 4)" length="1000.0" freespeed="7.5" capacity="1000.0" permlanes="1.0" oneway="1" modes="car" />
		<link id="(14 0) (14 1)" from="(14 0)" to="(14 1)" length="1000.0" freespeed="7.5" capacity="1000.0" permlanes="1.0" oneway="1" modes="car" />
		<link id="(14 0) (15 0)" from="(14 0)" to="(15 0)" length="1000.0" freespeed="7.5" capacity="1000.0" permlanes="1.0" oneway="1" modes="car" />
		<link id="(14 1) (14 0)" from="(14 1)" to="(14 0)" length="1000.0" freespeed="7.5" capacity="1000.0" permlanes="1.0" oneway="1" modes="car" />
		<link id="(14 1) (14 2)" from="(14 1)" to="(14 2)" length="1000.0" freespeed="7.5" capacity="1000.0" permlanes="1.0" oneway="1" modes="car" />
		<link id="(14 1) (15 1)" from="(14 1)" to="(15 1)" length="1000.0" freespeed="7.5" capacity="1000.0" permlanes="1.0" oneway="1" modes="car" />
		<link id="(14 2) (14 1)" from="(14 2)" to="(14 1)" length="1000.0" freespeed="7.5" capacity="1000.0" permlanes="1.0" oneway="1" modes="car" />
		<link id="(14 2) (14 3)" from="(14 2)" to="(14 3)" length="1000.0" freespeed="7.5" capacity="1000.0" permlanes="1.0" oneway="1" modes="car" />
		<link id="(14 2) (15 2)" from="(14 2)" to="(15 2)" length="1000.0" freespeed="7.5" capacity="1000.0" permlanes="1.0" oneway="1" modes="car" />
		<link id="(14 2) (4 2)" from="(14 2)" to="(4 2)" length="10000.0" freespeed="7.5" capacity="1000.0" permlanes="1.0" oneway="1" modes="car" />
		<link id="(14 3) (14 2)" from="(14 3)" to="(14 2)" length="1000.0" freespeed="7.5" capacity="1000.0" permlanes="1.0" oneway="1" modes="car" />
		<link id="(14 3) (14 4)" from="(14 3)" to="(14 4)" length="1000.0" freespeed="7.5" capacity="1000.0" permlanes="1.0" oneway="1" modes="car" />
		<link id="(14 3) (15 3)" from="(14 3)" to="(15 3)" length="1000.0" freespeed="7.5" capacity="1000.0" permlanes="1.0" oneway="1" modes="car" />
		<link id="(14 4) (14 3)" from="(14 4)" to="(14 3)" length="1000.0" freespeed="7.5" capacity="1000.0" permlanes="1.0" oneway="1" modes="car" />
		<link id="(14 4) (15 4)" from="(14 4)" to="(15 4)" length="1000.0" freespeed="7.5" capacity="1000.0" permlanes="1.0" oneway="1" modes="car" />
		<link id="(15 0) (14 0)" from="(15 0)" to="(14 0)" length="1000.0" freespeed="7.5" capacity="1000.0" permlanes="1.0" oneway="1" modes="car" />
		<link id="(15 0) (15 1)" from="(15 0)" to="(15 1)" length="1000.0" freespeed="7.5" capacity="1000.0" permlanes="1.0" oneway="1" modes="car" />
		<link id="(15 0) (16 0)" from="(15 0)" to="(16 0)" length="1000.0" freespeed="7.5" capacity="1000.0" permlanes="1.0" oneway="1" modes="car" />
		<link id="(15 1) (14 1)" from="(15 1)" to="(14 1)" length="1000.0" freespeed="7.5" capacity="1000.0" permlanes="1.0" oneway="1" modes="car" />
		<link id="(15 1) (15 0)" from="(15 1)" to="(15 0)" length="1000.0" freespeed="7.5" capacity="1000.0" permlanes="1.0" oneway="1" modes="car" />
		<link id="(15 1) (15 2)" from="(15 1)" to="(15 2)" length="1000.0" freespeed="7.5" capacity="1000.0" permlanes="1.0" oneway="1" modes="car" />
		<link id="(15 1) (16 1)" from="(15 1)" to="(16 1)" length="1000.0" freespeed="7.5" capacity="1000.0" permlanes="1.0" oneway="1" modes="car" />
		<link id="(15 2) (14 2)" from="(15 2)" to="(14 2)" length="1000.0" freespeed="7.5" capacity="1000.0" permlanes="1.0" oneway="1" modes="car" />
		<link id="(15 2) (15 1)" from="(15 2)" to="(15 1)" length="1000.0" freespeed="7.5" capacity="1000.0" permlanes="1.0" oneway="1" modes="car" />
		<link id="(15 2) (15 3)" from="(15 2)" to="(15 3)" length="1000.0" freespeed="7.5" capacity="1000.0" permlanes="1.0" oneway="1" modes="car" />
		<link id="(15 2) (16 2)" from="(15 2)" to="(16 2)" length="1000.0" freespeed="7.5" capacity="1000.0" permlanes="1.0" oneway="1" modes="car" />
		<link id="(15 3) (14 3)" from="(15 3)" to="(14 3)" length="1000.0" freespeed="7.5" capacity="1000.0" permlanes="1.0" oneway="1" modes="car" />
		<link id="(15 3) (15 2)" from="(15 3)" to="(15 2)" length="1000.0" freespeed="7.5" capacity="1000.0" permlanes="1.0" oneway="1" modes="car" />
		<link id="(15 3) (15 4)" from="(15 3)" to="(15 4)" length="1000.0" freespeed="7.5" capacity="1000.0" permlanes="1.0" oneway="1" modes="car" />
		<link id="(15 3) (16 3)" from="(15 3)" to="(16 3)" length="1000.0" freespeed="7.5" capacity="1000.0" permlanes="1.0" oneway="1" modes="car" />
		<link id="(15 4) (14 4)" from="(15 4)" to="(14 4)" length="1000.0" freespeed="7.5" capacity="1000.0" permlanes="1.0" oneway="1" modes="car" />
		<link id="(15 4) (15 3)" from="(15 4)" to="(15 3)" length="1000.0" freespeed="7.5" capacity="1000.0" permlanes="1.0" oneway="1" modes="car" />
		<link id="(15 4) (16 4)" from="(15 4)" to="(16 4)" length="1000.0" freespeed="7.5" capacity="1000.0" permlanes="1.0" oneway="1" modes="car" />
		<link id="(16 0) (15 0)" from="(16 0)" to="(15 0)" length="1000.0" freespeed="7.5" capacity="1000.0" permlanes="1.0" oneway="1" modes="car" />
		<link id="(16 0) (16 1)" from="(16 0)" to="(16 1)" length="1000.0" freespeed="7.5" capacity="1000.0" permlanes="1.0" oneway="1" modes="car" />
		<link id="(16 0) (17 0)" from="(16 0)" to="(17 0)" length="1000.0" freespeed="7.5" capacity="1000.0" permlanes="1.0" oneway="1" modes="car" />
		<link id="(16 1) (15 1)" from="(16 1)" to="(15 1)" length="1000.0" freespeed="7.5" capacity="1000.0" permlanes="1.0" oneway="1" modes="car" />
		<link id="(16 1) (16 0)" from="(16 1)" to="(16 0)" length="1000.0" freespeed="7.5" capacity="1000.0" permlanes="1.0" oneway="1" modes="car" />
		<link id="(16 1) (16 2)" from="(16 1)" to="(16 2)" length="1000.0" freespeed="7.5" capacity="1000.0" permlanes="1.0" oneway="1" modes="car" />
		<link id="(16 1) (17 1)" from="(16 1)" to="(17 1)" length="1000.0" freespeed="7.5" capacity="1000.0" permlanes="1.0" oneway="1" modes="car" />
		<link id="(16 2) (15 2)" from="(16 2)" to="(15 2)" length="1000.0" freespeed="7.5" capacity="1000.0" permlanes="1.0" oneway="1" modes="car" />
		<link id="(16 2) (16 1)" from="(16 2)" to="(16 1)" length="1000.0" freespeed="7.5" capacity="1000.0" permlanes="1.0" oneway="1" modes="car" />
		<link id="(16 2) (16 3)" from="(16 2)" to="(16 3)" length="1000.0" freespeed="7.5" capacity="1000.0" permlanes="1.0" oneway="1" modes="car" />
		<link id="(16 2) (17 2)" from="(16 2)" to="(17 2)" length="1000.0" freespeed="7.5" capacity="1000.0" permlanes="1.0" oneway="1" modes="car" />
		<link id="(16 3) (15 3)" from="(16 3)" to="(15 3)" length="1000.0" freespeed="7.5" capacity="1000.0" permlanes="1.0" oneway="1" modes="car" />
		<link id="(16 3) (16 2)" from="(16 3)" to="(16 2)" length="1000.0" freespeed="7.5" capacity="1000.0" permlanes="1.0" oneway="1" modes="car" />
		<link id="(16 3) (16 4)" from="(16 3)" to="(16 4)" length="1000.0" freespeed="7.5" capacity="1000.0" permlanes="1.0" oneway="1" modes="car" />
		<link id="(16 3) (17 3)" from="(16 3)" to="(17 3)" length="1000.0" freespeed="7.5" capacity="1000.0" permlanes="1.0" oneway="1" modes="car" />
		<link id="(16 4) (15 4)" from="(16 4)" to="(15 4)" length="1000.0" freespeed="7.5" capacity="1000.0" permlanes="1.0" oneway="1" modes="car" />
		<link id="(16 4) (16 3)" from="(16 4)" to="(16 3)" length="1000.0" freespeed="7.5" capacity="1000.0" permlanes="1.0" oneway="1" modes="car" />
		<link id="(16 4) (17 4)" from="(16 4)" to="(17 4)" length="1000.0" freespeed="7.5" capacity="1000.0" permlanes="1.0" oneway="1" modes="car" />
		<link id="(17 0) (16 0)" from="(17 0)" to="(16 0)" length="1000.0" freespeed="7.5" capacity="1000.0" permlanes="1.0" oneway="1" modes="car" />
		<link id="(17 0) (17 1)" from="(17 0)" to="(17 1)" length="1000.0" freespeed="7.5" capacity="1000.0" permlanes="1.0" oneway="1" modes="car" />
		<link id="(17 0) (18 0)" from="(17 0)" to="(18 0)" length="1000.0" freespeed="7.5" capacity="1000.0" permlanes="1.0" oneway="1" modes="car" />
		<link id="(17 1) (16 1)" from="(17 1)" to="(16 1)" length="1000.0" freespeed="7.5" capacity="1000.0" permlanes="1.0" oneway="1" modes="car" />
		<link id="(17 1) (17 0)" from="(17 1)" to="(17 0)" length="1000.0" freespeed="7.5" capacity="1000.0" permlanes="1.0" oneway="1" modes="car" />
		<link id="(17 1) (17 2)" from="(17 1)" to="(17 2)" length="1000.0" freespeed="7.5" capacity="1000.0" permlanes="1.0" oneway="1" modes="car" />
		<link id="(17 1) (18 1)" from="(17 1)" to="(18 1)" length="1000.0" freespeed="7.5" capacity="1000.0" permlanes="1.0" oneway="1" modes="car" />
		<link id="(17 2) (16 2)" from="(17 2)" to="(16 2)" length="1000.0" freespeed="7.5" capacity="1000.0" permlanes="1.0" oneway="1" modes="car" />
		<link id="(17 2) (17 1)" from="(17 2)" to="(17 1)" length="1000.0" freespeed="7.5" capacity="1000.0" permlanes="1.0" oneway="1" modes="car" />
		<link id="(17 2) (17 3)" from="(17 2)" to="(17 3)" length="1000.0" freespeed="7.5" capacity="1000.0" permlanes="1.0" oneway="1" modes="car" />
		<link id="(17 2) (18 2)" from="(17 2)" to="(18 2)" length="1000.0" freespeed="7.5" capacity="1000.0" permlanes="1.0" oneway="1" modes="car" />
		<link id="(17 3) (16 3)" from="(17 3)" to="(16 3)" length="1000.0" freespeed="7.5" capacity="1000.0" permlanes="1.0" oneway="1" modes="car" />
		<link id="(17 3) (17 2)" from="(17 3)" to="(17 2)" length="1000.0" freespeed="7.5" capacity="1000.0" permlanes="1.0" oneway="1" modes="car" />
		<link id="(17 3) (17 4)" from="(17 3)" to="(17 4)" length="1000.0" freespeed="7.5" capacity="1000.0" permlanes="1.0" oneway="1" modes="car" />
		<link id="(17 3) (18 3)" from="(17 3)" to="(18 3)" length="1000.0" freespeed="7.5" capacity="1000.0" permlanes="1.0" oneway="1" modes="car" />
		<link id="(17 4) (16 4)" from="(17 4)" to="(16 4)" length="1000.0" freespeed="7.5" capacity="1000.0" permlanes="1.0" oneway="1" modes="car" />
		<link id="(17 4) (17 3)" from="(17 4)" to="(17 3)" length="1000.0" freespeed="7.5" capacity="1000.0" permlanes="1.0" oneway="1" modes="car" />
		<link id="(17 4) (18 4)" from="(17 4)" to="(18 4)" length="1000.0" freespeed="7.5" capacity="1000.0" permlanes="1.0" oneway="1" modes="car" />
		<link id="(18 0) (17 0)" from="(18 0)" to="(17 0)" length="1000.0" freespeed="7.5" capacity="1000.0" permlanes="1.0" oneway="1" modes="car" />
		<link id="(18 0) (18 1)" from="(18 0)" to="(18 1)" length="1000.0" freespeed="7.5" capacity="1000.0" permlanes="1.0" oneway="1" modes="car" />
		<link id="(18 1) (17 1)" from="(18 1)" to="(17 1)" length="1000.0" freespeed="7.5" capacity="1000.0" permlanes="1.0" oneway="1" modes="car" />
		<link id="(18 1) (18 0)" from="(18 1)" to="(18 0)" length="1000.0" freespeed="7.5" capacity="1000.0" permlanes="1.0" oneway="1" modes="car" />
		<link id="(18 1) (18 2)" from="(18 1)" to="(18 2)" length="1000.0" freespeed="7.5" capacity="1000.0" permlanes="1.0" oneway="1" modes="car" />
		<link id="(18 2) (17 2)" from="(18 2)" to="(17 2)" length="1000.0" freespeed="7.5" capacity="1000.0" permlanes="1.0" oneway="1" modes="car" />
		<link id="(18 2) (18 1)" from="(18 2)" to="(18 1)" length="1000.0" freespeed="7.5" capacity="1000.0" permlanes="1.0" oneway="1" modes="car" />
		<link id="(18 2) (18 3)" from="(18 2)" to="(18 3)" length="1000.0" freespeed="7.5" capacity="1000.0" permlanes="1.0" oneway="1" modes="car" />
		<link id="(18 3) (17 3)" from="(18 3)" to="(17 3)" length="1000.0" freespeed="7.5" capacity="1000.0" permlanes="1.0" oneway="1" modes="car" />
		<link id="(18 3) (18 2)" from="(18 3)" to="(18 2)" length="1000.0" freespeed="7.5" capacity="1000.0" permlanes="1.0" oneway="1" modes="car" />
		<link id="(18 3) (18 4)" from="(18 3)" to="(18 4)" length="1000.0" freespeed="7.5" capacity="1000.0" permlanes="1.0" oneway="1" modes="car" />
		<link id="(18 4) (17 4)" from="(18 4)" to="(17 4)" length="1000.0" freespeed="7.5" capacity="1000.0" permlanes="1.0" oneway="1" modes="car" />
		<link id="(18 4) (18 3)" from="(18 4)" to="(18 3)" length="1000.0" freespeed="7.5" capacity="1000.0" permlanes="1.0" oneway="1" modes="car" />
		<link id="(2 0) (1 0)" from="(2 0)" to="(1 0)" length="1000.0" freespeed="7.5" capacity="1000.0" permlanes="1.0" oneway="1" modes="car" />
		<link id="(2 0) (2 1)" from="(2 0)" to="(2 1)" length="1000.0" freespeed="7.5" capacity="1000.0" permlanes="1.0" oneway="1" modes="car" />
		<link id="(2 0) (3 0)" from="(2 0)" to="(3 0)" length="1000.0" freespeed="7.5" capacity="1000.0" permlanes="1.0" oneway="1" modes="car" />
		<link id="(2 1) (1 1)" from="(2 1)" to="(1 1)" length="1000.0" freespeed="7.5" capacity="1000.0" permlanes="1.0" oneway="1" modes="car" />
		<link id="(2 1) (2 0)" from="(2 1)" to="(2 0)" length="1000.0" freespeed="7.5" capacity="1000.0" permlanes="1.0" oneway="1" modes="car" />
		<link id="(2 1) (2 2)" from="(2 1)" to="(2 2)" length="1000.0" freespeed="7.5" capacity="1000.0" permlanes="1.0" oneway="1" modes="car" />
		<link id="(2 1) (3 1)" from="(2 1)" to="(3 1)" length="1000.0" freespeed="7.5" capacity="1000.0" permlanes="1.0" oneway="1" modes="car" />
		<link id="(2 2) (1 2)" from="(2 2)" to="(1 2)" length="1000.0" freespeed="7.5" capacity="1000.0" permlanes="1.0" oneway="1" modes="car" />
		<link id="(2 2) (2 1)" from="(2 2)" to="(2 1)" length="1000.0" freespeed="7.5" capacity="1000.0" permlanes="1.0" oneway="1" modes="car" />
		<link id="(2 2) (2 3)" from="(2 2)" to="(2 3)" length="1000.0" freespeed="7.5" capacity="1000.0" permlanes="1.0" oneway="1" modes="car" />
		<link id="(2 2) (3 2)" from="(2 2)" to="(3 2)" length="1000.0" freespeed="7.5" capacity="1000.0" permlanes="1.0" oneway="1" modes="car" />
		<link id="(2 3) (1 3)" from="(2 3)" to="(1 3)" length="1000.0" freespeed="7.5" capacity="1000.0" permlanes="1.0" oneway="1" modes="car" />
		<link id="(2 3) (2 2)" from="(2 3)" to="(2 2)" length="1000.0" freespeed="7.5" capacity="1000.0" permlanes="1.0" oneway="1" modes="car" />
		<link id="(2 3) (2 4)" from="(2 3)" to="(2 4)" length="1000.0" freespeed="7.5" capacity="1000.0" permlanes="1.0" oneway="1" modes="car" />
		<link id="(2 3) (3 3)" from="(2 3)" to="(3 3)" length="1000.0" freespeed="7.5" capacity="1000.0" permlanes="1.0" oneway="1" modes="car" />
		<link id="(2 4) (1 4)" from="(2 4)" to="(1 4)" length="1000.0" freespeed="7.5" capacity="1000.0" permlanes="1.0" oneway="1" modes="car" />
		<link id="(2 4) (2 3)" from="(2 4)" to="(2 3)" length="1000.0" freespeed="7.5" capacity="1000.0" permlanes="1.0" oneway="1" modes="car" />
		<link id="(2 4) (3 4)" from="(2 4)" to="(3 4)" length="1000.0" freespeed="7.5" capacity="1000.0" permlanes="1.0" oneway="1" modes="car" />
		<link id="(3 0) (2 0)" from="(3 0)" to="(2 0)" length="1000.0" freespeed="7.5" capacity="1000.0" permlanes="1.0" oneway="1" modes="car" />
		<link id="(3 0) (3 1)" from="(3 0)" to="(3 1)" length="1000.0" freespeed="7.5" capacity="1000.0" permlanes="1.0" oneway="1" modes="car" />
		<link id="(3 0) (4 0)" from="(3 0)" to="(4 0)" length="1000.0" freespeed="7.5" capacity="1000.0" permlanes="1.0" oneway="1" modes="car" />
		<link id="(3 1) (2 1)" from="(3 1)" to="(2 1)" length="1000.0" freespeed="7.5" capacity="1000.0" permlanes="1.0" oneway="1" modes="car" />
		<link id="(3 1) (3 0)" from="(3 1)" to="(3 0)" length="1000.0" freespeed="7.5" capacity="1000.0" permlanes="1.0" oneway="1" modes="car" />
		<link id="(3 1) (3 2)" from="(3 1)" to="(3 2)" length="1000.0" freespeed="7.5" capacity="1000.0" permlanes="1.0" oneway="1" modes="car" />
		<link id="(3 1) (4 1)" from="(3 1)" to="(4 1)" length="1000.0" freespeed="7.5" capacity="1000.0" permlanes="1.0" oneway="1" modes="car" />
		<link id="(3 2) (2 2)" from="(3 2)" to="(2 2)" length="1000.0" freespeed="7.5" capacity="1000.0" permlanes="1.0" oneway="1" modes="car" />
		<link id="(3 2) (3 1)" from="(3 2)" to="(3 1)" length="1000.0" freespeed="7.5" capacity="1000.0" permlanes="1.0" oneway="1" modes="car" />
		<link id="(3 2) (3 3)" from="(3 2)" to="(3 3)" length="1000.0" freespeed="7.5" capacity="1000.0" permlanes="1.0" oneway="1" modes="car" />
		<link id="(3 2) (4 2)" from="(3 2)" to="(4 2)" length="1000.0" freespeed="7.5" capacity="1000.0" permlanes="1.0" oneway="1" modes="car" />
		<link id="(3 3) (2 3)" from="(3 3)" to="(2 3)" length="1000.0" freespeed="7.5" capacity="1000.0" permlanes="1.0" oneway="1" modes="car" />
		<link id="(3 3) (3 2)" from="(3 3)" to="(3 2)" length="1000.0" freespeed="7.5" capacity="1000.0" permlanes="1.0" oneway="1" modes="car" />
		<link id="(3 3) (3 4)" from="(3 3)" to="(3 4)" length="1000.0" freespeed="7.5" capacity="1000.0" permlanes="1.0" oneway="1" modes="car" />
		<link id="(3 3) (4 3)" from="(3 3)" to="(4 3)" length="1000.0" freespeed="7.5" capacity="1000.0" permlanes="1.0" oneway="1" modes="car" />
		<link id="(3 4) (2 4)" from="(3 4)" to="(2 4)" length="1000.0" freespeed="7.5" capacity="1000.0" permlanes="1.0" oneway="1" modes="car" />
		<link id="(3 4) (3 3)" from="(3 4)" to="(3 3)" length="1000.0" freespeed="7.5" capacity="1000.0" permlanes="1.0" oneway="1" modes="car" />
		<link id="(3 4) (4 4)" from="(3 4)" to="(4 4)" length="1000.0" freespeed="7.5" capacity="1000.0" permlanes="1.0" oneway="1" modes="car" />
		<link id="(4 0) (3 0)" from="(4 0)" to="(3 0)" length="1000.0" freespeed="7.5" capacity="1000.0" permlanes="1.0" oneway="1" modes="car" />
		<link id="(4 0) (4 1)" from="(4 0)" to="(4 1)" length="1000.0" freespeed="7.5" capacity="1000.0" permlanes="1.0" oneway="1" modes="car" />
		<link id="(4 1) (3 1)" from="(4 1)" to="(3 1)" length="1000.0" freespeed="7.5" capacity="1000.0" permlanes="1.0" oneway="1" modes="car" />
		<link id="(4 1) (4 0)" from="(4 1)" to="(4 0)" length="1000.0" freespeed="7.5" capacity="1000.0" permlanes="1.0" oneway="1" modes="car" />
		<link id="(4 1) (4 2)" from="(4 1)" to="(4 2)" length="1000.0" freespeed="7.5" capacity="1000.0" permlanes="1.0" oneway="1" modes="car" />
		<link id="(4 2) (14  2)" from="(4 2)" to="(14 2)" length="10000.0" freespeed="7.5" capacity="1000.0" permlanes="1.0" oneway="1" modes="car" />
		<link id="(4 2) (3 2)" from="(4 2)" to="(3 2)" length="1000.0" freespeed="7.5" capacity="1000.0" permlanes="1.0" oneway="1" modes="car" />
		<link id="(4 2) (4 1)" from="(4 2)" to="(4 1)" length="1000.0" freespeed="7.5" capacity="1000.0" permlanes="1.0" oneway="1" modes="car" />
		<link id="(4 2) (4 3)" from="(4 2)" to="(4 3)" length="1000.0" freespeed="7.5" capacity="1000.0" permlanes="1.0" oneway="1" modes="car" />
		<link id="(4 3) (3 3)" from="(4 3)" to="(3 3)" length="1000.0" freespeed="7.5" capacity="1000.0" permlanes="1.0" oneway="1" modes="car" />
		<link id="(4 3) (4 2)" from="(4 3)" to="(4 2)" length="1000.0" freespeed="7.5" capacity="1000.0" permlanes="1.0" oneway="1" modes="car" />
		<link id="(4 3) (4 4)" from="(4 3)" to="(4 4)" length="1000.0" freespeed="7.5" capacity="1000.0" permlanes="1.0" oneway="1" modes="car" />
		<link id="(4 4) (3 4)" from="(4 4)" to="(3 4)" length="1000.0" freespeed="7.5" capacity="1000.0" permlanes="1.0" oneway="1" modes="car" />
		<link id="(4 4) (4 3)" from="(4 4)" to="(4 3)" length="1000.0" freespeed="7.5" capacity="1000.0" permlanes="1.0" oneway="1" modes="car" />
	</links>

<!-- ====================================================================== -->

</network>
