<?xml version="1.0" encoding="utf-8"?>
<!DOCTYPE network SYSTEM "http://www.matsim.org/files/dtd/network_v1.dtd">

<network name="transit test network">
	<nodes>
		<node id="1" x="5000" y="5000"/>
		<node id="2" x="10000" y="10000"/>
		<node id="3" x="10000" y="15000"/>
		<node id="4" x="15000" y="20000"/>
		<node id="5" x="20000" y="20000"/>
		<node id="6" x="25000" y="25000"/>
		<node id="7" x="30000" y="25000"/>
		<node id="8" x="35000" y="20000"/>
		<node id="9" x="40000" y="20000"/>
		<node id="10" x="45000" y="25000"/>
		<node id="11" x="10000" y="25000"/>
		<node id="12" x="45000" y="15000"/>
		<node id="13" x="15000" y="25000"/>
		<node id="14" x="20000" y="30000"/>
		<node id="15" x="35000" y="30000"/>
		<node id="16" x="40000" y="25000"/>
		<node id="17" x="40000" y="15000"/>
		<node id="18" x="35000" y="10000"/>
		<node id="19" x="20000" y="10000"/>
		<node id="20" x="15000" y="15000"/>
		
		<node id="98" x="0" y="0"/>
		<node id="99" x="50000" y="35000"/>
	</nodes>
	<links capperiod="01:00:00">
		<link id="1" from="1" to="2" length="10000.00" capacity="36000" freespeed="12.5" permlanes="1"  />
		<link id="2" from="2" to="3" length="5000.00" capacity="36000" freespeed="12.5" permlanes="1"  />
		<link id="3" from="3" to="4" length="10000.00" capacity="36000" freespeed="12.5" permlanes="1"  />
		<link id="4" from="4" to="5" length="5000.00" capacity="36000" freespeed="12.5" permlanes="1"  />
		<link id="5" from="5" to="6" length="10000.00" capacity="36000" freespeed="12.5" permlanes="1"  />
		<link id="6" from="6" to="7" length="5000.00" capacity="36000" freespeed="12.5" permlanes="1"  />
		<link id="7" from="7" to="8" length="10000.00" capacity="36000" freespeed="12.5" permlanes="1"  />
		<link id="8" from="8" to="9" length="5000.00" capacity="36000" freespeed="12.5" permlanes="1"  />
		<link id="9" from="9" to="10" length="10000.00" capacity="36000" freespeed="12.5" permlanes="1"  />
		
		<link id="-1" from="2" to="1" length="10000.00" capacity="36000" freespeed="12.5" permlanes="1"  />
		<link id="-2" from="3" to="2" length="5000.00" capacity="36000" freespeed="12.5" permlanes="1"  />
		<link id="-3" from="4" to="3" length="10000.00" capacity="36000" freespeed="12.5" permlanes="1"  />
		<link id="-4" from="5" to="4" length="5000.00" capacity="36000" freespeed="12.5" permlanes="1"  />
		<link id="-5" from="6" to="5" length="10000.00" capacity="36000" freespeed="12.5" permlanes="1"  />
		<link id="-6" from="7" to="6" length="5000.00" capacity="36000" freespeed="12.5" permlanes="1"  />
		<link id="-7" from="8" to="7" length="10000.00" capacity="36000" freespeed="12.5" permlanes="1"  />
		<link id="-8" from="9" to="8" length="5000.00" capacity="36000" freespeed="12.5" permlanes="1"  />
		<link id="-9" from="10" to="9" length="10000.00" capacity="36000" freespeed="12.5" permlanes="1"  />
		
		<link id="10" from="4" to="11" length="10000.00" capacity="36000" freespeed="12.5" permlanes="1"  />
		<link id="11" from="9" to="12" length="10000.00" capacity="36000" freespeed="12.5" permlanes="1"  />

		<link id="-10" from="11" to="4" length="10000.00" capacity="36000" freespeed="12.5" permlanes="1"  />
		<link id="-11" from="12" to="9" length="10000.00" capacity="36000" freespeed="12.5" permlanes="1"  />

		<link id="12" from="13" to="14" length="10000.00" capacity="36000" freespeed="12.5" permlanes="1"  />
		<link id="13" from="14" to="15" length="15000.00" capacity="36000" freespeed="12.5" permlanes="1"  />
		<link id="14" from="15" to="16" length="10000.00" capacity="36000" freespeed="12.5" permlanes="1"  />
		<link id="15" from="16" to="17" length="10000.00" capacity="36000" freespeed="12.5" permlanes="1"  />
		<link id="16" from="17" to="18" length="10000.00" capacity="36000" freespeed="12.5" permlanes="1"  />
		<link id="17" from="18" to="19" length="15000.00" capacity="36000" freespeed="12.5" permlanes="1"  />
		<link id="18" from="19" to="20" length="10000.00" capacity="36000" freespeed="12.5" permlanes="1"  />
		<link id="19" from="13" to="20" length="10000.00" capacity="36000" freespeed="12.5" permlanes="1"  />

		<link id="-12" from="14" to="13" length="10000.00" capacity="36000" freespeed="12.5" permlanes="1"  />
		<link id="-13" from="15" to="14" length="15000.00" capacity="36000" freespeed="12.5" permlanes="1"  />
		<link id="-14" from="16" to="15" length="10000.00" capacity="36000" freespeed="12.5" permlanes="1"  />
		<link id="-15" from="17" to="16" length="10000.00" capacity="36000" freespeed="12.5" permlanes="1"  />
		<link id="-16" from="18" to="17" length="10000.00" capacity="36000" freespeed="12.5" permlanes="1"  />
		<link id="-17" from="19" to="18" length="15000.00" capacity="36000" freespeed="12.5" permlanes="1"  />
		<link id="-18" from="20" to="19" length="10000.00" capacity="36000" freespeed="12.5" permlanes="1"  />
		<link id="-19" from="20" to="13" length="10000.00" capacity="36000" freespeed="12.5" permlanes="1"  />
	</links>
</network>
