<?xml version="1.0" encoding="utf-8"?>
<!DOCTYPE network SYSTEM "http://www.matsim.org/files/dtd/network_v1.dtd">

<network name="trial scenario network">
   <nodes>
      <node id="1" x="-2000" y="0"/>
      <node id="2" x="0" y="2000"/>
      <node id="3" x="4000" y="0"/>
   </nodes>
   <links capperiod="01:00:00" effectivecellsize="7.5" effectivelanewidth="3.75" >
      <link id="1" from="1" to="2" length="2800.00" capacity="3600" freespeed="27.77777777777778" permlanes="1" oneway="1" modes="car" />
      <link id="2" from="2" to="3" length="4500.00" capacity="360" freespeed="13.88888888888889" permlanes="1"  oneway="1" modes="car" />
      <link id="3" from="3" to="1" length="6000.00" capacity="360" freespeed="27.77777777777778" permlanes="2"  oneway="1" modes="car" />
   </links>
</network>