<?xml version="1.0" encoding="utf-8"?>
<!DOCTYPE population SYSTEM "http://www.matsim.org/files/dtd/population_v5.dtd">

<population>

<!-- ====================================================================== -->

	<person id="6510_1" sex="f" age="51" car_avail="always" employed="yes">
		<plan selected="yes">
			<act type="home" facility="1339_18" x="686386.7981000002" y="4824847.9253" end_time="07:36:36" />
			<leg mode="car">
			</leg>
			<act type="work" facility="7783_16" x="684264.4409999996" y="4824161.496099999" start_time="07:51:36" end_time="17:20:07" />
			<leg mode="car">
			</leg>
			<act type="home" facility="1339_18" x="686386.7981000002" y="4824847.9253" />
		</plan>

	</person>

<!-- ====================================================================== -->

	<person id="768_2" sex="m" age="41" car_avail="always" employed="yes">
		<plan selected="yes">
			<act type="home" facility="14993_17" x="685633.267" y="4823347.2456" end_time="07:39:38" />
			<leg mode="car">
			</leg>
			<act type="work" facility="7747_16" x="685411.5823999997" y="4824336.984999999" start_time="07:54:38" end_time="18:04:48" />
			<leg mode="car">
			</leg>
			<act type="home" facility="14993_17" x="685633.267" y="4823347.2456" />
		</plan>

	</person>

<!-- ====================================================================== -->

	<person id="768_1" sex="f" age="42" car_avail="always" employed="yes">
		<plan selected="yes">
			<act type="home" facility="14993_17" x="685633.267" y="4823347.2456" end_time="07:07:45" />
			<leg mode="car">
			</leg>
			<act type="work" facility="8499_10" x="682859.7642999999" y="4823475.499600001" start_time="07:22:45" end_time="17:42:14" />
			<leg mode="car">
			</leg>
			<act type="home" facility="14993_17" x="685633.267" y="4823347.2456" />
		</plan>

	</person>

<!-- ====================================================================== -->

	<person id="5153_2" sex="f" age="44" car_avail="always" employed="yes">
		<plan selected="yes">
			<act type="home" facility="20297_12" x="678785.3909" y="4822565.4717" end_time="07:34:09" />
			<leg mode="car">
			</leg>
			<act type="work" facility="9117_11" x="680911.3173000002" y="4823573.8496" start_time="07:49:09" end_time="17:26:47" />
			<leg mode="car">
			</leg>
			<act type="home" facility="20297_12" x="678785.3909" y="4822565.4717" />
		</plan>

	</person>

<!-- ====================================================================== -->

	<person id="5153_1" sex="m" age="46" car_avail="always" employed="yes">
		<plan selected="yes">
			<act type="home" facility="20297_12" x="678785.3909" y="4822565.4717" end_time="07:21:19" />
			<leg mode="car">
			</leg>
			<act type="work" facility="20025_11" x="680760.9926000005" y="4824476.318499999" start_time="07:36:19" end_time="17:28:34" />
			<leg mode="car">
			</leg>
			<act type="home" facility="20297_12" x="678785.3909" y="4822565.4717" />
		</plan>

	</person>

<!-- ====================================================================== -->

	<person id="989_2" sex="f" age="57" car_avail="always" employed="yes">
		<plan selected="yes">
			<act type="home" facility="10167_18" x="685620.3037999999" y="4823748.7228999995" end_time="07:42:18" />
			<leg mode="car">
			</leg>
			<act type="work" facility="8014_16" x="684459.0318" y="4824298.4399" start_time="07:57:18" end_time="17:17:04" />
			<leg mode="car">
			</leg>
			<act type="home" facility="10167_18" x="685620.3037999999" y="4823748.7228999995" />
		</plan>

	</person>

<!-- ====================================================================== -->

	<person id="31617_3" sex="f" age="21" car_avail="never" employed="no">
		<plan selected="yes">
			<act type="home" facility="16119_24" x="680347.0765000004" y="4820642.4725" end_time="17:17:38" />
			<leg mode="pt">
			</leg>
			<act type="secondary" facility="23427_14" x="680647.4117" y="4822822.8057" start_time="17:32:38" end_time="18:32:38" />
			<leg mode="pt">
			</leg>
			<act type="home" facility="16119_24" x="680347.0765000004" y="4820642.4725" />
		</plan>

	</person>

<!-- ====================================================================== -->

	<person id="24066_1" sex="m" age="94" car_avail="always" employed="no">
		<plan selected="yes">
			<act type="home" facility="7616_16" x="685298.0380999995" y="4824468.457699999" end_time="12:15:16" />
			<leg mode="car">
			</leg>
			<act type="secondary" facility="15211_18" x="686523.3426999999" y="4823731.571799999" start_time="12:30:16" end_time="13:30:16" />
			<leg mode="car">
			</leg>
			<act type="home" facility="7616_16" x="685298.0380999995" y="4824468.457699999" />
		</plan>

	</person>

<!-- ====================================================================== -->

	<person id="8748_2" sex="f" age="38" car_avail="always" employed="no">
		<plan selected="yes">
			<act type="home" facility="15300_18" x="686840.5608000001" y="4823333.0053" end_time="09:06:11" />
			<leg mode="car">
			</leg>
			<act type="secondary" facility="21581_16" x="684633.0099999998" y="4824176.0867" start_time="09:21:11" end_time="10:21:11" />
			<leg mode="car">
			</leg>
			<act type="home" facility="15300_18" x="686840.5608000001" y="4823333.0053" />
		</plan>

	</person>

<!-- ====================================================================== -->

	<person id="37288_3" sex="m" age="24" car_avail="always" employed="no">
		<plan selected="yes">
			<act type="home" facility="24294_21" x="683634.6101000002" y="4820324.638599999" end_time="19:23:23" />
			<leg mode="car">
			</leg>
			<act type="secondary" facility="24002_22" x="683186.6842999998" y="4821270.809800001" start_time="19:38:23" end_time="20:38:23" />
			<leg mode="car">
			</leg>
			<act type="home" facility="24294_21" x="683634.6101000002" y="4820324.638599999" />
		</plan>

	</person>

<!-- ====================================================================== -->

	<person id="32182_1" sex="f" age="81" car_avail="always" employed="no">
		<plan selected="yes">
			<act type="home" facility="22151_20" x="684384.7854000004" y="4819291.074899999" end_time="17:08:57" />
			<leg mode="car">
			</leg>
			<act type="secondary" facility="18683_19" x="685030.2098000003" y="4821396.5309" start_time="17:23:57" end_time="18:23:57" />
			<leg mode="car">
			</leg>
			<act type="home" facility="22151_20" x="684384.7854000004" y="4819291.074899999" />
		</plan>

	</person>

</population>
