<?xml version="1.0" encoding="UTF-8"?>
<!DOCTYPE transitSchedule SYSTEM "http://www.matsim.org/files/dtd/transitSchedule_v1.dtd">

<transitSchedule>
	<transitStops>
		<stopFacility id="0" x="1000.0" y="1000.0" linkRefId= "20"/>
		<stopFacility id="1" x="3000.0" y="1000.0" linkRefId= "1"/>
		<stopFacility id="10" x="1000.0" y="5000.0" linkRefId= "22"/>
		<stopFacility id="14" x="9000.0" y="5000.0" linkRefId= "38"/>
		<stopFacility id="15" x="1000.0" y="7000.0" linkRefId= "23"/>
		<stopFacility id="19" x="9000.0" y="7000.0" linkRefId= "39"/>
		<stopFacility id="2" x="5000.0" y="1000.0" linkRefId= "2"/>
		<stopFacility id="20" x="1000.0" y="9000.0" linkRefId= "16"/>
		<stopFacility id="21" x="3000.0" y="9000.0" linkRefId= "17"/>
		<stopFacility id="22" x="5000.0" y="9000.0" linkRefId= "18"/>
		<stopFacility id="23" x="7000.0" y="9000.0" linkRefId= "19"/>
		<stopFacility id="24" x="9000.0" y="9000.0" linkRefId= "59"/>
		<stopFacility id="3" x="7000.0" y="1000.0" linkRefId= "3"/>
		<stopFacility id="4" x="9000.0" y="1000.0" linkRefId= "36"/>
		<stopFacility id="5" x="1000.0" y="3000.0" linkRefId= "21"/>
		<stopFacility id="6" x="3000.0" y="3000.0" linkRefId= "64"/>
		<stopFacility id="9" x="9000.0" y="3000.0" linkRefId= "37"/>
	</transitStops>
	<transitLine id="Blue Line">
		<transitRoute id="Blue Route 0_20">
			<transportMode>pt</transportMode>
			<routeProfile>
				<stop refId="0" arrivalOffset="00:00:00" departureOffset="00:00:02"/>
				<stop refId="5" arrivalOffset="00:00:04" departureOffset="00:00:06"/>
				<stop refId="10" arrivalOffset="00:00:08" departureOffset="00:00:10"/>
				<stop refId="15" arrivalOffset="00:00:12" departureOffset="00:00:14"/>
				<stop refId="20" arrivalOffset="00:00:16" departureOffset="00:00:18"/>
			</routeProfile>
			<route>
				<link refId="20"/>
				<link refId="21"/>
				<link refId="22"/>
				<link refId="23"/>
			</route>
			
			<departures>
				<departure id="T2.3" departureTime="08:00:02" vehicleRefId="tr_3" />
				<departure id="T2.4" departureTime="08:00:12" vehicleRefId="tr_4" />
			</departures>
		</transitRoute>
	</transitLine>
	
	
</transitSchedule>