<?xml version="1.0" encoding="utf-8"?>
<!DOCTYPE plans SYSTEM "http://www.matsim.org/files/dtd/plans_v4.dtd">

<plans>

<!-- ====================================================================== -->
	<person id="1" >
		<plan selected="yes">
			<act type="h" link="1" x="-25000.0" y="0.0" end_time="06:00:00" />
			<leg mode="pt">
			</leg>
			<act type="w" link="20" x="10000.0" y="0.0" dur="00:10:00" />
			<leg mode="pt">
			</leg>
			<act type="h" link="1" x="-25000.0" y="0.0" />
		</plan>

	</person>

<!-- ====================================================================== -->

	<person id="10" >
		<plan selected="yes">
			<act type="h" link="1" x="-25000.0" y="0.0" end_time="06:00:00" />
			<leg mode="pt">
			</leg>
			<act type="w" link="20" x="10000.0" y="0.0" dur="00:10:00" />
			<leg mode="pt">
			</leg>
			<act type="h" link="1" x="-25000.0" y="0.0" />
		</plan>

	</person>

<!-- ====================================================================== -->

	<person id="11" >
		<plan selected="yes">
			<act type="h" link="1" x="-25000.0" y="0.0" end_time="06:00:00" />
			<leg mode="pt">
			</leg>
			<act type="w" link="20" x="10000.0" y="0.0" dur="00:10:00" />
			<leg mode="pt">
			</leg>
			<act type="h" link="1" x="-25000.0" y="0.0" />
		</plan>

	</person>

<!-- ====================================================================== -->

	<person id="12" >
		<plan selected="yes">
			<act type="h" link="1" x="-25000.0" y="0.0" end_time="06:00:00" />
			<leg mode="pt">
			</leg>
			<act type="w" link="20" x="10000.0" y="0.0" dur="00:10:00" />
			<leg mode="pt">
			</leg>
			<act type="h" link="1" x="-25000.0" y="0.0" />
		</plan>

	</person>

<!-- ====================================================================== -->

	<person id="13" >
		<plan selected="yes">
			<act type="h" link="1" x="-25000.0" y="0.0" end_time="06:00:00" />
			<leg mode="pt">
			</leg>
			<act type="w" link="20" x="10000.0" y="0.0" dur="00:10:00" />
			<leg mode="pt">
			</leg>
			<act type="h" link="1" x="-25000.0" y="0.0" />
		</plan>

	</person>

<!-- ====================================================================== -->

	<person id="14" >
		<plan selected="yes">
			<act type="h" link="1" x="-25000.0" y="0.0" end_time="06:00:00" />
			<leg mode="pt">
			</leg>
			<act type="w" link="20" x="10000.0" y="0.0" dur="00:10:00" />
			<leg mode="pt">
			</leg>
			<act type="h" link="1" x="-25000.0" y="0.0" />
		</plan>

	</person>

<!-- ====================================================================== -->

	<person id="15" >
		<plan selected="yes">
			<act type="h" link="1" x="-25000.0" y="0.0" end_time="06:00:00" />
			<leg mode="pt">
			</leg>
			<act type="w" link="20" x="10000.0" y="0.0" dur="00:10:00" />
			<leg mode="pt">
			</leg>
			<act type="h" link="1" x="-25000.0" y="0.0" />
		</plan>

	</person>

<!-- ====================================================================== -->

	<person id="16" >
		<plan selected="yes">
			<act type="h" link="1" x="-25000.0" y="0.0" end_time="06:00:00" />
			<leg mode="pt">
			</leg>
			<act type="w" link="20" x="10000.0" y="0.0" dur="00:10:00" />
			<leg mode="pt">
			</leg>
			<act type="h" link="1" x="-25000.0" y="0.0" />
		</plan>

	</person>

<!-- ====================================================================== -->

	<person id="17" >
		<plan selected="yes">
			<act type="h" link="1" x="-25000.0" y="0.0" end_time="06:00:00" />
			<leg mode="pt">
			</leg>
			<act type="w" link="20" x="10000.0" y="0.0" dur="00:10:00" />
			<leg mode="pt">
			</leg>
			<act type="h" link="1" x="-25000.0" y="0.0" />
		</plan>

	</person>

<!-- ====================================================================== -->

	<person id="18" >
		<plan selected="yes">
			<act type="h" link="1" x="-25000.0" y="0.0" end_time="06:00:00" />
			<leg mode="pt">
			</leg>
			<act type="w" link="20" x="10000.0" y="0.0" dur="00:10:00" />
			<leg mode="pt">
			</leg>
			<act type="h" link="1" x="-25000.0" y="0.0" />
		</plan>

	</person>

<!-- ====================================================================== -->

	<person id="19" >
		<plan selected="yes">
			<act type="h" link="1" x="-25000.0" y="0.0" end_time="06:00:00" />
			<leg mode="pt">
			</leg>
			<act type="w" link="20" x="10000.0" y="0.0" dur="00:10:00" />
			<leg mode="pt">
			</leg>
			<act type="h" link="1" x="-25000.0" y="0.0" />
		</plan>

	</person>

<!-- ====================================================================== -->

	<person id="2" >
		<plan selected="yes">
			<act type="h" link="1" x="-25000.0" y="0.0" end_time="06:00:00" />
			<leg mode="pt">
			</leg>
			<act type="w" link="20" x="10000.0" y="0.0" dur="00:10:00" />
			<leg mode="pt">
			</leg>
			<act type="h" link="1" x="-25000.0" y="0.0" />
		</plan>

	</person>

<!-- ====================================================================== -->

	<person id="20" >
		<plan selected="yes">
			<act type="h" link="1" x="-25000.0" y="0.0" end_time="06:00:00" />
			<leg mode="pt">
			</leg>
			<act type="w" link="20" x="10000.0" y="0.0" dur="00:10:00" />
			<leg mode="pt">
			</leg>
			<act type="h" link="1" x="-25000.0" y="0.0" />
		</plan>

	</person>

<!-- ====================================================================== -->

	<person id="21" >
		<plan selected="yes">
			<act type="h" link="1" x="-25000.0" y="0.0" end_time="06:00:00" />
			<leg mode="pt">
			</leg>
			<act type="w" link="20" x="10000.0" y="0.0" dur="00:10:00" />
			<leg mode="pt">
			</leg>
			<act type="h" link="1" x="-25000.0" y="0.0" />
		</plan>

	</person>

<!-- ====================================================================== -->

	<person id="22" >
		<plan selected="yes">
			<act type="h" link="1" x="-25000.0" y="0.0" end_time="06:00:00" />
			<leg mode="pt">
			</leg>
			<act type="w" link="20" x="10000.0" y="0.0" dur="00:10:00" />
			<leg mode="pt">
			</leg>
			<act type="h" link="1" x="-25000.0" y="0.0" />
		</plan>

	</person>

<!-- ====================================================================== -->

	<person id="23" >
		<plan selected="yes">
			<act type="h" link="1" x="-25000.0" y="0.0" end_time="06:00:00" />
			<leg mode="pt">
			</leg>
			<act type="w" link="20" x="10000.0" y="0.0" dur="00:10:00" />
			<leg mode="pt">
			</leg>
			<act type="h" link="1" x="-25000.0" y="0.0" />
		</plan>

	</person>

<!-- ====================================================================== -->

	<person id="24" >
		<plan selected="yes">
			<act type="h" link="1" x="-25000.0" y="0.0" end_time="06:00:00" />
			<leg mode="pt">
			</leg>
			<act type="w" link="20" x="10000.0" y="0.0" dur="00:10:00" />
			<leg mode="pt">
			</leg>
			<act type="h" link="1" x="-25000.0" y="0.0" />
		</plan>

	</person>

<!-- ====================================================================== -->

	<person id="25" >
		<plan selected="yes">
			<act type="h" link="1" x="-25000.0" y="0.0" end_time="06:00:00" />
			<leg mode="pt">
			</leg>
			<act type="w" link="20" x="10000.0" y="0.0" dur="00:10:00" />
			<leg mode="pt">
			</leg>
			<act type="h" link="1" x="-25000.0" y="0.0" />
		</plan>

	</person>

<!-- ====================================================================== -->

	<person id="26" >
		<plan selected="yes">
			<act type="h" link="1" x="-25000.0" y="0.0" end_time="06:00:00" />
			<leg mode="pt">
			</leg>
			<act type="w" link="20" x="10000.0" y="0.0" dur="00:10:00" />
			<leg mode="pt">
			</leg>
			<act type="h" link="1" x="-25000.0" y="0.0" />
		</plan>

	</person>

<!-- ====================================================================== -->

	<person id="27" >
		<plan selected="yes">
			<act type="h" link="1" x="-25000.0" y="0.0" end_time="06:00:00" />
			<leg mode="pt">
			</leg>
			<act type="w" link="20" x="10000.0" y="0.0" dur="00:10:00" />
			<leg mode="pt">
			</leg>
			<act type="h" link="1" x="-25000.0" y="0.0" />
		</plan>

	</person>

<!-- ====================================================================== -->

	<person id="28" >
		<plan selected="yes">
			<act type="h" link="1" x="-25000.0" y="0.0" end_time="06:00:00" />
			<leg mode="pt">
			</leg>
			<act type="w" link="20" x="10000.0" y="0.0" dur="00:10:00" />
			<leg mode="pt">
			</leg>
			<act type="h" link="1" x="-25000.0" y="0.0" />
		</plan>

	</person>

<!-- ====================================================================== -->

	<person id="29" >
		<plan selected="yes">
			<act type="h" link="1" x="-25000.0" y="0.0" end_time="06:00:00" />
			<leg mode="pt">
			</leg>
			<act type="w" link="20" x="10000.0" y="0.0" dur="00:10:00" />
			<leg mode="pt">
			</leg>
			<act type="h" link="1" x="-25000.0" y="0.0" />
		</plan>

	</person>

<!-- ====================================================================== -->

	<person id="3" >
		<plan selected="yes">
			<act type="h" link="1" x="-25000.0" y="0.0" end_time="06:00:00" />
			<leg mode="pt">
			</leg>
			<act type="w" link="20" x="10000.0" y="0.0" dur="00:10:00" />
			<leg mode="pt">
			</leg>
			<act type="h" link="1" x="-25000.0" y="0.0" />
		</plan>

	</person>

<!-- ====================================================================== -->

	<person id="30" >
		<plan selected="yes">
			<act type="h" link="1" x="-25000.0" y="0.0" end_time="06:00:00" />
			<leg mode="pt">
			</leg>
			<act type="w" link="20" x="10000.0" y="0.0" dur="00:10:00" />
			<leg mode="pt">
			</leg>
			<act type="h" link="1" x="-25000.0" y="0.0" />
		</plan>

	</person>

<!-- ====================================================================== -->

	<person id="31" >
		<plan selected="yes">
			<act type="h" link="1" x="-25000.0" y="0.0" end_time="06:00:00" />
			<leg mode="pt">
			</leg>
			<act type="w" link="20" x="10000.0" y="0.0" dur="00:10:00" />
			<leg mode="pt">
			</leg>
			<act type="h" link="1" x="-25000.0" y="0.0" />
		</plan>

	</person>

<!-- ====================================================================== -->

	<person id="32" >
		<plan selected="yes">
			<act type="h" link="1" x="-25000.0" y="0.0" end_time="06:00:00" />
			<leg mode="pt">
			</leg>
			<act type="w" link="20" x="10000.0" y="0.0" dur="00:10:00" />
			<leg mode="pt">
			</leg>
			<act type="h" link="1" x="-25000.0" y="0.0" />
		</plan>

	</person>

<!-- ====================================================================== -->

	<person id="33" >
		<plan selected="yes">
			<act type="h" link="1" x="-25000.0" y="0.0" end_time="06:00:00" />
			<leg mode="pt">
			</leg>
			<act type="w" link="20" x="10000.0" y="0.0" dur="00:10:00" />
			<leg mode="pt">
			</leg>
			<act type="h" link="1" x="-25000.0" y="0.0" />
		</plan>

	</person>

<!-- ====================================================================== -->

	<person id="34" >
		<plan selected="yes">
			<act type="h" link="1" x="-25000.0" y="0.0" end_time="06:00:00" />
			<leg mode="pt">
			</leg>
			<act type="w" link="20" x="10000.0" y="0.0" dur="00:10:00" />
			<leg mode="pt">
			</leg>
			<act type="h" link="1" x="-25000.0" y="0.0" />
		</plan>

	</person>

<!-- ====================================================================== -->

	<person id="35" >
		<plan selected="yes">
			<act type="h" link="1" x="-25000.0" y="0.0" end_time="06:00:00" />
			<leg mode="pt">
			</leg>
			<act type="w" link="20" x="10000.0" y="0.0" dur="00:10:00" />
			<leg mode="pt">
			</leg>
			<act type="h" link="1" x="-25000.0" y="0.0" />
		</plan>

	</person>

<!-- ====================================================================== -->

	<person id="36" >
		<plan selected="yes">
			<act type="h" link="1" x="-25000.0" y="0.0" end_time="06:00:00" />
			<leg mode="pt">
			</leg>
			<act type="w" link="20" x="10000.0" y="0.0" dur="00:10:00" />
			<leg mode="pt">
			</leg>
			<act type="h" link="1" x="-25000.0" y="0.0" />
		</plan>

	</person>

<!-- ====================================================================== -->

	<person id="37" >
		<plan selected="yes">
			<act type="h" link="1" x="-25000.0" y="0.0" end_time="06:00:00" />
			<leg mode="pt">
			</leg>
			<act type="w" link="20" x="10000.0" y="0.0" dur="00:10:00" />
			<leg mode="pt">
			</leg>
			<act type="h" link="1" x="-25000.0" y="0.0" />
		</plan>

	</person>

<!-- ====================================================================== -->

	<person id="38" >
		<plan selected="yes">
			<act type="h" link="1" x="-25000.0" y="0.0" end_time="06:00:00" />
			<leg mode="pt">
			</leg>
			<act type="w" link="20" x="10000.0" y="0.0" dur="00:10:00" />
			<leg mode="pt">
			</leg>
			<act type="h" link="1" x="-25000.0" y="0.0" />
		</plan>

	</person>

<!-- ====================================================================== -->

	<person id="39" >
		<plan selected="yes">
			<act type="h" link="1" x="-25000.0" y="0.0" end_time="06:00:00" />
			<leg mode="pt">
			</leg>
			<act type="w" link="20" x="10000.0" y="0.0" dur="00:10:00" />
			<leg mode="pt">
			</leg>
			<act type="h" link="1" x="-25000.0" y="0.0" />
		</plan>

	</person>

<!-- ====================================================================== -->

	<person id="4" >
		<plan selected="yes">
			<act type="h" link="1" x="-25000.0" y="0.0" end_time="06:00:00" />
			<leg mode="pt">
			</leg>
			<act type="w" link="20" x="10000.0" y="0.0" dur="00:10:00" />
			<leg mode="pt">
			</leg>
			<act type="h" link="1" x="-25000.0" y="0.0" />
		</plan>

	</person>

<!-- ====================================================================== -->

	<person id="40" >
		<plan selected="yes">
			<act type="h" link="1" x="-25000.0" y="0.0" end_time="06:00:00" />
			<leg mode="pt">
			</leg>
			<act type="w" link="20" x="10000.0" y="0.0" dur="00:10:00" />
			<leg mode="pt">
			</leg>
			<act type="h" link="1" x="-25000.0" y="0.0" />
		</plan>

	</person>

<!-- ====================================================================== -->

	<person id="41" >
		<plan selected="yes">
			<act type="h" link="1" x="-25000.0" y="0.0" end_time="06:00:00" />
			<leg mode="pt">
			</leg>
			<act type="w" link="20" x="10000.0" y="0.0" dur="00:10:00" />
			<leg mode="pt">
			</leg>
			<act type="h" link="1" x="-25000.0" y="0.0" />
		</plan>

	</person>

<!-- ====================================================================== -->

	<person id="42" >
		<plan selected="yes">
			<act type="h" link="1" x="-25000.0" y="0.0" end_time="06:00:00" />
			<leg mode="pt">
			</leg>
			<act type="w" link="20" x="10000.0" y="0.0" dur="00:10:00" />
			<leg mode="pt">
			</leg>
			<act type="h" link="1" x="-25000.0" y="0.0" />
		</plan>

	</person>

<!-- ====================================================================== -->

	<person id="43" >
		<plan selected="yes">
			<act type="h" link="1" x="-25000.0" y="0.0" end_time="06:00:00" />
			<leg mode="pt">
			</leg>
			<act type="w" link="20" x="10000.0" y="0.0" dur="00:10:00" />
			<leg mode="pt">
			</leg>
			<act type="h" link="1" x="-25000.0" y="0.0" />
		</plan>

	</person>

<!-- ====================================================================== -->

	<person id="44" >
		<plan selected="yes">
			<act type="h" link="1" x="-25000.0" y="0.0" end_time="06:00:00" />
			<leg mode="pt">
			</leg>
			<act type="w" link="20" x="10000.0" y="0.0" dur="00:10:00" />
			<leg mode="pt">
			</leg>
			<act type="h" link="1" x="-25000.0" y="0.0" />
		</plan>

	</person>

<!-- ====================================================================== -->

	<person id="45" >
		<plan selected="yes">
			<act type="h" link="1" x="-25000.0" y="0.0" end_time="06:00:00" />
			<leg mode="pt">
			</leg>
			<act type="w" link="20" x="10000.0" y="0.0" dur="00:10:00" />
			<leg mode="pt">
			</leg>
			<act type="h" link="1" x="-25000.0" y="0.0" />
		</plan>

	</person>

<!-- ====================================================================== -->

	<person id="46" >
		<plan selected="yes">
			<act type="h" link="1" x="-25000.0" y="0.0" end_time="06:00:00" />
			<leg mode="pt">
			</leg>
			<act type="w" link="20" x="10000.0" y="0.0" dur="00:10:00" />
			<leg mode="pt">
			</leg>
			<act type="h" link="1" x="-25000.0" y="0.0" />
		</plan>

	</person>

<!-- ====================================================================== -->

	<person id="47" >
		<plan selected="yes">
			<act type="h" link="1" x="-25000.0" y="0.0" end_time="06:00:00" />
			<leg mode="pt">
			</leg>
			<act type="w" link="20" x="10000.0" y="0.0" dur="00:10:00" />
			<leg mode="pt">
			</leg>
			<act type="h" link="1" x="-25000.0" y="0.0" />
		</plan>

	</person>

<!-- ====================================================================== -->

	<person id="48" >
		<plan selected="yes">
			<act type="h" link="1" x="-25000.0" y="0.0" end_time="06:00:00" />
			<leg mode="pt">
			</leg>
			<act type="w" link="20" x="10000.0" y="0.0" dur="00:10:00" />
			<leg mode="pt">
			</leg>
			<act type="h" link="1" x="-25000.0" y="0.0" />
		</plan>

	</person>

<!-- ====================================================================== -->

	<person id="49" >
		<plan selected="yes">
			<act type="h" link="1" x="-25000.0" y="0.0" end_time="06:00:00" />
			<leg mode="pt">
			</leg>
			<act type="w" link="20" x="10000.0" y="0.0" dur="00:10:00" />
			<leg mode="pt">
			</leg>
			<act type="h" link="1" x="-25000.0" y="0.0" />
		</plan>

	</person>

<!-- ====================================================================== -->

	<person id="5" >
		<plan selected="yes">
			<act type="h" link="1" x="-25000.0" y="0.0" end_time="06:00:00" />
			<leg mode="pt">
			</leg>
			<act type="w" link="20" x="10000.0" y="0.0" dur="00:10:00" />
			<leg mode="pt">
			</leg>
			<act type="h" link="1" x="-25000.0" y="0.0" />
		</plan>

	</person>

<!-- ====================================================================== -->

	<person id="50" >
		<plan selected="yes">
			<act type="h" link="1" x="-25000.0" y="0.0" end_time="06:00:00" />
			<leg mode="pt">
			</leg>
			<act type="w" link="20" x="10000.0" y="0.0" dur="00:10:00" />
			<leg mode="pt">
			</leg>
			<act type="h" link="1" x="-25000.0" y="0.0" />
		</plan>

	</person>

<!-- ====================================================================== -->

	<person id="51" >
		<plan selected="yes">
			<act type="h" link="1" x="-25000.0" y="0.0" end_time="06:00:00" />
			<leg mode="pt">
			</leg>
			<act type="w" link="20" x="10000.0" y="0.0" dur="00:10:00" />
			<leg mode="pt">
			</leg>
			<act type="h" link="1" x="-25000.0" y="0.0" />
		</plan>

	</person>

<!-- ====================================================================== -->

	<person id="52" >
		<plan selected="yes">
			<act type="h" link="1" x="-25000.0" y="0.0" end_time="06:00:00" />
			<leg mode="pt">
			</leg>
			<act type="w" link="20" x="10000.0" y="0.0" dur="00:10:00" />
			<leg mode="pt">
			</leg>
			<act type="h" link="1" x="-25000.0" y="0.0" />
		</plan>

	</person>

<!-- ====================================================================== -->

	<person id="53" >
		<plan selected="yes">
			<act type="h" link="1" x="-25000.0" y="0.0" end_time="06:00:00" />
			<leg mode="pt">
			</leg>
			<act type="w" link="20" x="10000.0" y="0.0" dur="00:10:00" />
			<leg mode="pt">
			</leg>
			<act type="h" link="1" x="-25000.0" y="0.0" />
		</plan>

	</person>

<!-- ====================================================================== -->

	<person id="54" >
		<plan selected="yes">
			<act type="h" link="1" x="-25000.0" y="0.0" end_time="06:00:00" />
			<leg mode="pt">
			</leg>
			<act type="w" link="20" x="10000.0" y="0.0" dur="00:10:00" />
			<leg mode="pt">
			</leg>
			<act type="h" link="1" x="-25000.0" y="0.0" />
		</plan>

	</person>

<!-- ====================================================================== -->

	<person id="55" >
		<plan selected="yes">
			<act type="h" link="1" x="-25000.0" y="0.0" end_time="06:00:00" />
			<leg mode="pt">
			</leg>
			<act type="w" link="20" x="10000.0" y="0.0" dur="00:10:00" />
			<leg mode="pt">
			</leg>
			<act type="h" link="1" x="-25000.0" y="0.0" />
		</plan>

	</person>

<!-- ====================================================================== -->

	<person id="56" >
		<plan selected="yes">
			<act type="h" link="1" x="-25000.0" y="0.0" end_time="06:00:00" />
			<leg mode="pt">
			</leg>
			<act type="w" link="20" x="10000.0" y="0.0" dur="00:10:00" />
			<leg mode="pt">
			</leg>
			<act type="h" link="1" x="-25000.0" y="0.0" />
		</plan>

	</person>

<!-- ====================================================================== -->

	<person id="57" >
		<plan selected="yes">
			<act type="h" link="1" x="-25000.0" y="0.0" end_time="06:00:00" />
			<leg mode="pt">
			</leg>
			<act type="w" link="20" x="10000.0" y="0.0" dur="00:10:00" />
			<leg mode="pt">
			</leg>
			<act type="h" link="1" x="-25000.0" y="0.0" />
		</plan>

	</person>

<!-- ====================================================================== -->

	<person id="58" >
		<plan selected="yes">
			<act type="h" link="1" x="-25000.0" y="0.0" end_time="06:00:00" />
			<leg mode="pt">
			</leg>
			<act type="w" link="20" x="10000.0" y="0.0" dur="00:10:00" />
			<leg mode="pt">
			</leg>
			<act type="h" link="1" x="-25000.0" y="0.0" />
		</plan>

	</person>

<!-- ====================================================================== -->

	<person id="59" >
		<plan selected="yes">
			<act type="h" link="1" x="-25000.0" y="0.0" end_time="06:00:00" />
			<leg mode="pt">
			</leg>
			<act type="w" link="20" x="10000.0" y="0.0" dur="00:10:00" />
			<leg mode="pt">
			</leg>
			<act type="h" link="1" x="-25000.0" y="0.0" />
		</plan>

	</person>

<!-- ====================================================================== -->

	<person id="6" >
		<plan selected="yes">
			<act type="h" link="1" x="-25000.0" y="0.0" end_time="06:00:00" />
			<leg mode="pt">
			</leg>
			<act type="w" link="20" x="10000.0" y="0.0" dur="00:10:00" />
			<leg mode="pt">
			</leg>
			<act type="h" link="1" x="-25000.0" y="0.0" />
		</plan>

	</person>

<!-- ====================================================================== -->

	<person id="60" >
		<plan selected="yes">
			<act type="h" link="1" x="-25000.0" y="0.0" end_time="06:00:00" />
			<leg mode="pt">
			</leg>
			<act type="w" link="20" x="10000.0" y="0.0" dur="00:10:00" />
			<leg mode="pt">
			</leg>
			<act type="h" link="1" x="-25000.0" y="0.0" />
		</plan>

	</person>

<!-- ====================================================================== -->

	<person id="61" >
		<plan selected="yes">
			<act type="h" link="1" x="-25000.0" y="0.0" end_time="06:00:00" />
			<leg mode="pt">
			</leg>
			<act type="w" link="20" x="10000.0" y="0.0" dur="00:10:00" />
			<leg mode="pt">
			</leg>
			<act type="h" link="1" x="-25000.0" y="0.0" />
		</plan>

	</person>

<!-- ====================================================================== -->

	<person id="62" >
		<plan selected="yes">
			<act type="h" link="1" x="-25000.0" y="0.0" end_time="06:00:00" />
			<leg mode="pt">
			</leg>
			<act type="w" link="20" x="10000.0" y="0.0" dur="00:10:00" />
			<leg mode="pt">
			</leg>
			<act type="h" link="1" x="-25000.0" y="0.0" />
		</plan>

	</person>

<!-- ====================================================================== -->

	<person id="63" >
		<plan selected="yes">
			<act type="h" link="1" x="-25000.0" y="0.0" end_time="06:00:00" />
			<leg mode="pt">
			</leg>
			<act type="w" link="20" x="10000.0" y="0.0" dur="00:10:00" />
			<leg mode="pt">
			</leg>
			<act type="h" link="1" x="-25000.0" y="0.0" />
		</plan>

	</person>

<!-- ====================================================================== -->

	<person id="64" >
		<plan selected="yes">
			<act type="h" link="1" x="-25000.0" y="0.0" end_time="06:00:00" />
			<leg mode="pt">
			</leg>
			<act type="w" link="20" x="10000.0" y="0.0" dur="00:10:00" />
			<leg mode="pt">
			</leg>
			<act type="h" link="1" x="-25000.0" y="0.0" />
		</plan>

	</person>

<!-- ====================================================================== -->

	<person id="65" >
		<plan selected="yes">
			<act type="h" link="1" x="-25000.0" y="0.0" end_time="06:00:00" />
			<leg mode="pt">
			</leg>
			<act type="w" link="20" x="10000.0" y="0.0" dur="00:10:00" />
			<leg mode="pt">
			</leg>
			<act type="h" link="1" x="-25000.0" y="0.0" />
		</plan>

	</person>

<!-- ====================================================================== -->

	<person id="66" >
		<plan selected="yes">
			<act type="h" link="1" x="-25000.0" y="0.0" end_time="06:00:00" />
			<leg mode="pt">
			</leg>
			<act type="w" link="20" x="10000.0" y="0.0" dur="00:10:00" />
			<leg mode="pt">
			</leg>
			<act type="h" link="1" x="-25000.0" y="0.0" />
		</plan>

	</person>

<!-- ====================================================================== -->

	<person id="67" >
		<plan selected="yes">
			<act type="h" link="1" x="-25000.0" y="0.0" end_time="06:00:00" />
			<leg mode="pt">
			</leg>
			<act type="w" link="20" x="10000.0" y="0.0" dur="00:10:00" />
			<leg mode="pt">
			</leg>
			<act type="h" link="1" x="-25000.0" y="0.0" />
		</plan>

	</person>

<!-- ====================================================================== -->

	<person id="68" >
		<plan selected="yes">
			<act type="h" link="1" x="-25000.0" y="0.0" end_time="06:00:00" />
			<leg mode="pt">
			</leg>
			<act type="w" link="20" x="10000.0" y="0.0" dur="00:10:00" />
			<leg mode="pt">
			</leg>
			<act type="h" link="1" x="-25000.0" y="0.0" />
		</plan>

	</person>

<!-- ====================================================================== -->

	<person id="69" >
		<plan selected="yes">
			<act type="h" link="1" x="-25000.0" y="0.0" end_time="06:00:00" />
			<leg mode="pt">
			</leg>
			<act type="w" link="20" x="10000.0" y="0.0" dur="00:10:00" />
			<leg mode="pt">
			</leg>
			<act type="h" link="1" x="-25000.0" y="0.0" />
		</plan>

	</person>

<!-- ====================================================================== -->

	<person id="7" >
		<plan selected="yes">
			<act type="h" link="1" x="-25000.0" y="0.0" end_time="06:00:00" />
			<leg mode="pt">
			</leg>
			<act type="w" link="20" x="10000.0" y="0.0" dur="00:10:00" />
			<leg mode="pt">
			</leg>
			<act type="h" link="1" x="-25000.0" y="0.0" />
		</plan>

	</person>

<!-- ====================================================================== -->

	<person id="70" >
		<plan selected="yes">
			<act type="h" link="1" x="-25000.0" y="0.0" end_time="06:00:00" />
			<leg mode="pt">
			</leg>
			<act type="w" link="20" x="10000.0" y="0.0" dur="00:10:00" />
			<leg mode="pt">
			</leg>
			<act type="h" link="1" x="-25000.0" y="0.0" />
		</plan>

	</person>

<!-- ====================================================================== -->

	<person id="71" >
		<plan selected="yes">
			<act type="h" link="1" x="-25000.0" y="0.0" end_time="06:00:00" />
			<leg mode="pt">
			</leg>
			<act type="w" link="20" x="10000.0" y="0.0" dur="00:10:00" />
			<leg mode="pt">
			</leg>
			<act type="h" link="1" x="-25000.0" y="0.0" />
		</plan>

	</person>

<!-- ====================================================================== -->

	<person id="72" >
		<plan selected="yes">
			<act type="h" link="1" x="-25000.0" y="0.0" end_time="06:00:00" />
			<leg mode="pt">
			</leg>
			<act type="w" link="20" x="10000.0" y="0.0" dur="00:10:00" />
			<leg mode="pt">
			</leg>
			<act type="h" link="1" x="-25000.0" y="0.0" />
		</plan>

	</person>

<!-- ====================================================================== -->

	<person id="73" >
		<plan selected="yes">
			<act type="h" link="1" x="-25000.0" y="0.0" end_time="06:00:00" />
			<leg mode="pt">
			</leg>
			<act type="w" link="20" x="10000.0" y="0.0" dur="00:10:00" />
			<leg mode="pt">
			</leg>
			<act type="h" link="1" x="-25000.0" y="0.0" />
		</plan>

	</person>

<!-- ====================================================================== -->

	<person id="74" >
		<plan selected="yes">
			<act type="h" link="1" x="-25000.0" y="0.0" end_time="06:00:00" />
			<leg mode="pt">
			</leg>
			<act type="w" link="20" x="10000.0" y="0.0" dur="00:10:00" />
			<leg mode="pt">
			</leg>
			<act type="h" link="1" x="-25000.0" y="0.0" />
		</plan>

	</person>

<!-- ====================================================================== -->

	<person id="75" >
		<plan selected="yes">
			<act type="h" link="1" x="-25000.0" y="0.0" end_time="06:00:00" />
			<leg mode="pt">
			</leg>
			<act type="w" link="20" x="10000.0" y="0.0" dur="00:10:00" />
			<leg mode="pt">
			</leg>
			<act type="h" link="1" x="-25000.0" y="0.0" />
		</plan>

	</person>

<!-- ====================================================================== -->

	<person id="76" >
		<plan selected="yes">
			<act type="h" link="1" x="-25000.0" y="0.0" end_time="06:00:00" />
			<leg mode="pt">
			</leg>
			<act type="w" link="20" x="10000.0" y="0.0" dur="00:10:00" />
			<leg mode="pt">
			</leg>
			<act type="h" link="1" x="-25000.0" y="0.0" />
		</plan>

	</person>

<!-- ====================================================================== -->

	<person id="77" >
		<plan selected="yes">
			<act type="h" link="1" x="-25000.0" y="0.0" end_time="06:00:00" />
			<leg mode="pt">
			</leg>
			<act type="w" link="20" x="10000.0" y="0.0" dur="00:10:00" />
			<leg mode="pt">
			</leg>
			<act type="h" link="1" x="-25000.0" y="0.0" />
		</plan>

	</person>

<!-- ====================================================================== -->

	<person id="78" >
		<plan selected="yes">
			<act type="h" link="1" x="-25000.0" y="0.0" end_time="06:00:00" />
			<leg mode="pt">
			</leg>
			<act type="w" link="20" x="10000.0" y="0.0" dur="00:10:00" />
			<leg mode="pt">
			</leg>
			<act type="h" link="1" x="-25000.0" y="0.0" />
		</plan>

	</person>

<!-- ====================================================================== -->

	<person id="79" >
		<plan selected="yes">
			<act type="h" link="1" x="-25000.0" y="0.0" end_time="06:00:00" />
			<leg mode="pt">
			</leg>