<?xml version="1.0" encoding="utf-8"?>
<!DOCTYPE network SYSTEM "http://matsim.org/files/dtd/network_v1.dtd">

<network name="test network">
<!--

	(0) === link01 ===> (1) === link12 ===> (2) === link23 ===> (3)
	A															|
	|======================= link30 ============================|	


-->
<nodes>
	<node id="0" x="0" y="0" />
	<node id="1" x="5000" y="0" />
	<node id="2" x="10000" y="0" />
	<node id="3" x="15000" y="0" />
</nodes>
<links capperiod="1:00:00">
	<link id="link01" from="0" to="1" length="5000.00" capacity="999999999999" freespeed="10" modes="car" permlanes="1" />
	<link id="link12" from="1" to="2" length="5000.00" capacity="1800" freespeed="10" modes="car" permlanes="1" />
	<link id="link23" from="2" to="3" length="5000.00" capacity="999999999999" freespeed="10" modes="car" permlanes="1" />
	<link id="link30" from="3" to="0" length="15000.00" capacity="999999999999" freespeed="10" modes="car" permlanes="1" />
</links>
</network>