<?xml version="1.0" encoding="UTF-8"?>

<vehicleDefinitions xmlns:xsi="http://www.w3.org/2001/XMLSchema-instance" xmlns="http://www.matsim.org/files/dtd" xsi:schemaLocation="http://www.matsim.org/files/dtd http://www.matsim.org/files/dtd/vehicleDefinitions_v2.0.xsd">

	<vehicleType id="trainType_slow">
		<attributes>
			<attribute name="accessTimeInSecondsPerPerson" class="java.lang.Double">5.0</attribute>
			<attribute name="doorOperationMode" class="org.matsim.vehicles.VehicleType$DoorOperationMode">serial</attribute>
			<attribute name="egressTimeInSecondsPerPerson" class="java.lang.Double">5.0</attribute>
		</attributes>
		<capacity seats="40" standingRoomInPersons="0">

		</capacity>
		<length meter="100.0"/>
		<width meter="1.0"/>
		<maximumVelocity meterPerSecond="10."/>
		<costInformation>

		</costInformation>
		<passengerCarEquivalents pce="1.0"/>
		<networkMode networkMode="rail"/>
		<flowEfficiencyFactor factor="1.0"/>
	</vehicleType>

	<vehicleType id="trainType_fast">
		<attributes>
			<attribute name="accessTimeInSecondsPerPerson" class="java.lang.Double">5.0</attribute>
			<attribute name="doorOperationMode" class="org.matsim.vehicles.VehicleType$DoorOperationMode">serial</attribute>
			<attribute name="egressTimeInSecondsPerPerson" class="java.lang.Double">5.0</attribute>
		</attributes>
		<capacity seats="40" standingRoomInPersons="0">

		</capacity>
		<length meter="100.0"/>
		<width meter="1.0"/>
		<maximumVelocity meterPerSecond="30."/>
		<costInformation>

		</costInformation>
		<passengerCarEquivalents pce="1.0"/>
		<networkMode networkMode="rail"/>
		<flowEfficiencyFactor factor="1.0"/>
	</vehicleType>

	<vehicle id="train1" type="trainType_slow"/>
	<vehicle id="train2" type="trainType_fast"/>

</vehicleDefinitions>
