<?xml version="1.0" encoding="utf-8"?>
<!DOCTYPE plans SYSTEM "http://www.matsim.org/files/dtd/plans_v4.dtd">

<plans>

<!-- ====================================================================== -->

	<person id="700000000" sex="m" age="34" license="yes" car_avail="sometimes" employed="yes">
		<plan selected="yes" type="CAR">
			<act type="h11" link="110679" end_time="07:30:00" />
			<leg num="0" mode="car" dep_time="07:30:00" trav_time="00:03:42" arr_time="07:33:42">
				<route dist="2526.0" trav_time="00:03:42">

				</route>
			</leg>
			<act type="w5" link="110679" dur="05:00:00" />
			<leg num="0" mode="car" dep_time="07:30:00" trav_time="00:03:42" arr_time="07:33:42">
							<route dist="2526.0" trav_time="00:03:42">
			
							</route>
						</leg>
			<act type="w5" link="110679" dur="05:00:00" />
		</plan>

	</person>
	
	<person id="700000001" sex="m" age="34" license="yes" car_avail="sometimes" employed="yes">
		<plan selected="yes" type="CAR">
			<act type="h11" link="110679" end_time="07:30:00" />
			<leg num="0" mode="car" dep_time="07:30:00" trav_time="00:03:42" arr_time="07:33:42">
				<route dist="2526.0" trav_time="00:03:42">

				</route>
			</leg>
			<act type="w5" link="110679" dur="05:00:00" />
			<leg num="0" mode="car" dep_time="07:30:00" trav_time="00:03:42" arr_time="07:33:42">
							<route dist="2526.0" trav_time="00:03:42">
			
							</route>
						</leg>
			<act type="w5" link="110679" dur="05:00:00" />
		</plan>

	</person>
	
	<person id="700000002" sex="m" age="34" license="yes" car_avail="sometimes" employed="yes">
		<plan selected="yes" type="CAR">
			<act type="h11" link="110679" end_time="07:30:00" />
			<leg num="0" mode="car" dep_time="07:30:00" trav_time="00:03:42" arr_time="07:33:42">
				<route dist="2526.0" trav_time="00:03:42">

				</route>
			</leg>
			<act type="w5" link="110679" dur="05:00:00" />
			<leg num="0" mode="car" dep_time="07:30:00" trav_time="00:03:42" arr_time="07:33:42">
							<route dist="2526.0" trav_time="00:03:42">
			
							</route>
						</leg>
			<act type="w5" link="110679" dur="05:00:00" />
		</plan>

	</person>

</plans>
