<?xml version="1.0" encoding="UTF-8"?>
<!DOCTYPE population SYSTEM "http://www.matsim.org/files/dtd/population_v5.dtd">
<population>
	<person id="11049629">
		<plan selected="yes">
			<act type="Home" x="2024191.08322172" y="557688.855234172" end_time="8:21:00" />
			<leg mode="car" />
			<act type="Discretionary" x="2015307.7008322" y="551335.275899693" start_time="8:54:00" end_time="9:22:00" />
			<leg mode="car" />
			<act type="Visiting" x="2023974.4793231" y="557836.987147014" start_time="9:45:00" end_time="10:53:00" />
			<leg mode="car" />
			<act type="Home" x="2024954.68767503" y="558701.551040837" start_time="11:7:00" end_time="11:42:00" />
			<leg mode="car" />
			<act type="Maintenance" x="1960325.30700289" y="603799.925505685" start_time="12:18:00" end_time="12:19:00" />
			<leg mode="car" />
			<act type="Visiting" x="1958484.2427842" y="554934.737690888" start_time="12:55:00" end_time="12:31:00" />
			<leg mode="car" />
			<act type="Maintenance" x="1963788.59738205" y="556760.47687298" start_time="12:37:00" end_time="12:37:00" />
			<leg mode="car" />
			<act type="Maintenance" x="1963156.13450419" y="551210.736094518" start_time="12:51:00" end_time="14:17:00" />
			<leg mode="car" />
			<act type="Maintenance" x="2028064.64692011" y="568603.810730722" start_time="15:9:00" end_time="15:17:00" />
			<leg mode="car" />
			<act type="Home" x="2024066.91795434" y="558052.962924964" start_time="15:34:00" end_time="16:24:00" />
			<leg mode="car" />
			<act type="Discretionary" x="2027052.86897547" y="568391.822733809" start_time="16:35:00" end_time="17:21:00" />
			<leg mode="car" />
			<act type="Shop" x="2024296.80675434" y="557637.000964186" start_time="17:25:00" end_time="18:32:00" />
			<leg mode="car" />
			<act type="Eatout" x="2017668.39593143" y="551611.873363375" start_time="19:18:00" end_time="19:37:00" />
			<leg mode="car" />
			<act type="Home" x="2024204.74922334" y="558283.138710427" start_time="20:18:00" end_time="21:15:00" />
			<leg mode="car" />
			<act type="Eatout" x="2027764.69687004" y="568207.597245503" start_time="21:40:00" end_time="22:30:00" />
			<leg mode="car" />
			<act type="Home" x="2024191.08322172" y="557688.855234172" />
		</plan>
	</person>
	<person id="11049629_a">
		<plan selected="yes">
			<act type="Home" x="2024191.08322172" y="557688.855234172" end_time="8:21:00" />
			<leg mode="car" />
			<act type="Discretionary" x="2015307.7008322" y="551335.275899693" start_time="8:54:00" end_time="9:22:00" />
			<leg mode="car" />
			<act type="Visiting" x="2023974.4793231" y="557836.987147014" start_time="9:45:00" end_time="10:53:00" />
			<leg mode="car" />
			<act type="Home" x="2024954.68767503" y="558701.551040837" start_time="11:7:00" end_time="11:42:00" />
			<leg mode="car" />
			<act type="Maintenance" x="1960325.30700289" y="603799.925505685" start_time="12:18:00" end_time="12:19:00" />
			<leg mode="car" />
			<act type="Visiting" x="1958484.2427842" y="554934.737690888" start_time="12:55:00" end_time="12:31:00" />
			<leg mode="car" />
			<act type="Maintenance" x="1963788.59738205" y="556760.47687298" start_time="12:37:00" end_time="12:37:00" />
			<leg mode="car" />
			<act type="Maintenance" x="1963156.13450419" y="551210.736094518" start_time="12:51:00" end_time="14:17:00" />
			<leg mode="car" />
			<act type="Maintenance" x="2028064.64692011" y="568603.810730722" start_time="15:9:00" end_time="15:17:00" />
			<leg mode="car" />
			<act type="Home" x="2024066.91795434" y="558052.962924964" start_time="15:34:00" end_time="16:24:00" />
			<leg mode="car" />
			<act type="Discretionary" x="2027052.86897547" y="568391.822733809" start_time="16:35:00" end_time="17:21:00" />
			<leg mode="car" />
			<act type="Shop" x="2024296.80675434" y="557637.000964186" start_time="17:25:00" end_time="18:32:00" />
			<leg mode="car" />
			<act type="Eatout" x="2017668.39593143" y="551611.873363375" start_time="19:18:00" end_time="19:37:00" />
			<leg mode="car" />
			<act type="Home" x="2024204.74922334" y="558283.138710427" start_time="20:18:00" end_time="21:15:00" />
			<leg mode="car" />
			<act type="Eatout" x="2027764.69687004" y="568207.597245503" start_time="21:40:00" end_time="22:30:00" />
			<leg mode="car" />
			<act type="Home" x="2024191.08322172" y="557688.855234172" />
		</plan>
	</person>
<!--<person id="16318934">-->
<!--<plan selected="yes">-->
<!--<act type="Home" x="1993046.58632427" y="569035.287274" end_time="3:48:00" />-->
<!--<leg mode="car" />-->
<!--<act type="Maintenance" x="1987442.31396116" y="539075.927764792" start_time="4:22:00" end_time="6:16:00" />-->
<!--<leg mode="car" />-->
<!--<act type="Visiting" x="1989444.05518653" y="533052.681107363" start_time="6:20:00" end_time="8:42:00" />-->
<!--<leg mode="car" />-->
<!--<act type="Discretionary" x="1990961.47701007" y="534447.33879461" start_time="8:58:00" end_time="11:11:00" />-->
<!--<leg mode="car" />-->
<!--<act type="Discretionary" x="1989780.96427411" y="538808.878272248" start_time="11:25:00" end_time="13:49:00" />-->
<!--<leg mode="car" />-->
<!--<act type="Work" x="1987812.08911755" y="531671.564159364" start_time="13:56:00" end_time="17:17:00" />-->
<!--<leg mode="car" />-->
<!--<act type="Home" x="1993046.58632427" y="569035.287274" />-->
<!--</plan>-->
<!--</person>-->

<!--<person id="14827722">-->
<!--<plan selected="yes">-->
<!--<act type="Home" x="1991617.59568514" y="571394.295138889" end_time="6:35:00" />-->
<!--<leg mode="car" />-->
<!--<act type="Escort" x="1991768.48919249" y="571516.621650924" start_time="6:34:00" end_time="6:33:00" />-->
<!--<leg mode="car" />-->
<!--<act type="Home" x="1992205.29259212" y="571362.815397651" start_time="6:43:00" end_time="9:48:00" />-->
<!--<leg mode="car" />-->
<!--<act type="Maintenance" x="1991182.89974789" y="571423.849793506" start_time="9:59:00" end_time="13:57:00" />-->
<!--<leg mode="car" />-->
<!--<act type="Home" x="1991500.20479218" y="571462.868540068" start_time="13:54:00" end_time="14:35:00" />-->
<!--<leg mode="car" />-->
<!--<act type="Shop" x="1988789.92328991" y="571524.450373255" start_time="14:42:00" end_time="15:26:00" />-->
<!--<leg mode="car" />-->
<!--<act type="Discretionary" x="1986137.70419054" y="569962.067592625" start_time="15:33:00" end_time="16:23:00" />-->
<!--<leg mode="car" />-->
<!--<act type="Shop" x="1986695.30760795" y="570703.152270241" start_time="16:22:00" end_time="17:15:00" />-->
<!--<leg mode="car" />-->
<!--<act type="Home" x="1991719.72519962" y="571501.065417833" start_time="17:26:00" end_time="17:30:00" />-->
<!--<leg mode="car" />-->
<!--<act type="Discretionary" x="1976829.7590752" y="572802.162270763" start_time="17:39:00" end_time="17:50:00" />-->
<!--<leg mode="car" />-->
<!--<act type="Home" x="1991628.34089475" y="571259.006475495" start_time="17:44:00" end_time="19:10:00" />-->
<!--<leg mode="car" />-->
<!--<act type="Escort" x="1973643.66577515" y="634230.944762364" start_time="19:32:00" end_time="19:24:00" />-->
<!--<leg mode="car" />-->
<!--<act type="Escort" x="1976217.80118412" y="583090.95870719" start_time="19:54:00" end_time="19:59:00" />-->
<!--<leg mode="car" />-->
<!--<act type="Home" x="1991390.10859796" y="571644.817420004" start_time="20:10:00" end_time="24:56:00" />-->
<!--<leg mode="car" />-->
<!--<act type="Escort" x="1976870.64265227" y="572218.303674426" start_time="24:55:00" end_time="25:20:00" />-->
<!--<leg mode="car" />-->
<!--<act type="Home" x="1991617.59568514" y="571394.295138889" />-->
<!--</plan>-->
<!--</person>-->

<!--<person id="14677973">-->
<!--<plan selected="yes">-->
<!--<act type="Home" x="1989400.65381516" y="568670.282398807" end_time="7:30:00" />-->
<!--<leg mode="car" />-->
<!--<act type="Shop" x="1964389.5682729" y="578963.655953423" start_time="7:46:00" end_time="8:13:00" />-->
<!--<leg mode="car" />-->
<!--<act type="Maintenance" x="1964360.22486694" y="557729.665135586" start_time="8:32:00" end_time="8:30:00" />-->
<!--<leg mode="car" />-->
<!--<act type="Eatout" x="1962311.15561349" y="558365.894306724" start_time="8:25:00" end_time="8:43:00" />-->
<!--<leg mode="car" />-->
<!--<act type="Shop" x="1958339.62712373" y="554904.399907994" start_time="8:52:00" end_time="9:26:00" />-->
<!--<leg mode="car" />-->
<!--<act type="Eatout" x="2023632.78540391" y="558125.340646495" start_time="9:40:00" end_time="9:57:00" />-->
<!--<leg mode="car" />-->
<!--<act type="Home" x="1990085.23242659" y="568771.529111686" start_time="10:42:00" end_time="11:46:00" />-->
<!--<leg mode="car" />-->
<!--<act type="Work" x="1986714.95503006" y="539588.171194518" start_time="12:7:00" end_time="22:20:00" />-->
<!--<leg mode="car" />-->
<!--<act type="Home" x="1989400.65381516" y="568670.282398807" />-->
<!--</plan>-->
<!--</person>-->

<!--<person id="8590781">-->
<!--<plan selected="yes">-->
<!--<act type="Home" x="1979930.94678464" y="535309.401765788" end_time="8:22:00" />-->
<!--<leg mode="car" />-->
<!--<act type="Escort" x="1965899.9525726" y="537077.243890277" start_time="8:29:00" end_time="8:31:00" />-->
<!--<leg mode="car" />-->
<!--<act type="Home" x="1979870.00679203" y="535405.002129533" start_time="8:53:00" end_time="9:10:00" />-->
<!--<leg mode="car" />-->
<!--<act type="Work" x="1968088.9813774" y="552189.312692217" start_time="9:24:00" end_time="11:11:00" />-->
<!--<leg mode="car" />-->
<!--<act type="Work" x="1980384.37490037" y="531450.456936248" start_time="11:39:00" end_time="13:17:00" />-->
<!--<leg mode="car" />-->
<!--<act type="Work" x="1980547.02279797" y="531225.254924618" start_time="13:6:00" end_time="15:10:00" />-->
<!--<leg mode="car" />-->
<!--<act type="Work" x="1970659.8198263" y="541559.530843236" start_time="15:18:00" end_time="17:26:00" />-->
<!--<leg mode="car" />-->
<!--<act type="Home" x="1979930.94678464" y="535309.401765788" />-->
<!--</plan>-->
<!--</person>-->

<!--<person id="4804716">-->
<!--<plan selected="yes">-->
<!--<act type="Home" x="2022052.97805323" y="608172.165496662" end_time="7:47:00" />-->
<!--<leg mode="car" />-->
<!--<act type="Escort" x="2025122.44101373" y="589533.588069544" start_time="7:56:00" end_time="8:12:00" />-->
<!--<leg mode="car" />-->
<!--<act type="Home" x="2027540.94645" y="601511.738409357" start_time="8:16:00" end_time="8:40:00" />-->
<!--<leg mode="car" />-->
<!--<act type="Work" x="2021171.21435419" y="612461.757085188" start_time="8:49:00" end_time="12:32:00" />-->
<!--<leg mode="car" />-->
<!--<act type="University" x="2017320.60947981" y="576782.60329235" start_time="12:49:00" end_time="16:15:00" />-->
<!--<leg mode="car" />-->
<!--<act type="Home" x="2029396.54297375" y="602443.635144062" start_time="16:41:00" end_time="18:49:00" />-->
<!--<leg mode="car" />-->
<!--<act type="Work" x="2029042.81189142" y="613168.426077384" start_time="19:53:00" end_time="25:52:00" />-->
<!--<leg mode="car" />-->
<!--<act type="Home" x="2022052.97805323" y="608172.165496662" />-->
<!--</plan>-->
<!--</person>-->

<!--<person id="8279090">-->
<!--<plan selected="yes">-->
<!--<act type="Home" x="1973481.25070863" y="566986.226630113" end_time="6:18:00" />-->
<!--<leg mode="car" />-->
<!--<act type="Discretionary" x="1972630.07557066" y="563079.418844406" start_time="6:30:00" end_time="7:1:00" />-->
<!--<leg mode="car" />-->
<!--<act type="Home" x="1973484.18285604" y="567329.380966435" start_time="7:5:00" end_time="7:25:00" />-->
<!--<leg mode="car" />-->
<!--<act type="Escort" x="1973277.71068241" y="526035.678600788" start_time="7:36:00" end_time="7:52:00" />-->
<!--<leg mode="car" />-->
<!--<act type="Escort" x="1973130.78484484" y="549987.875288938" start_time="8:12:00" end_time="8:27:00" />-->
<!--<leg mode="car" />-->
<!--<act type="Home" x="1973470.12721081" y="567429.141917608" start_time="8:32:00" end_time="8:45:00" />-->
<!--<leg mode="car" />-->
<!--<act type="Work" x="1970195.56973594" y="537823.068452043" start_time="9:7:00" end_time="17:4:00" />-->
<!--<leg mode="car" />-->
<!--<act type="Home" x="1973636.11859499" y="567401.62657378" start_time="17:4:00" end_time="17:20:00" />-->
<!--<leg mode="car" />-->
<!--<act type="Work" x="1970195.56973594" y="537823.068452043" start_time="17:28:00" end_time="19:53:00" />-->
<!--<leg mode="car" />-->
<!--<act type="Escort" x="1970747.66713413" y="528548.229246627" start_time="19:48:00" end_time="22:29:00" />-->
<!--<leg mode="car" />-->
<!--<act type="Shop" x="1973044.39259736" y="564995.74598681" start_time="22:28:00" end_time="25:7:00" />-->
<!--<leg mode="car" />-->
<!--<act type="Home" x="1973481.25070863" y="566986.226630113" />-->
<!--</plan>-->
<!--</person>-->

<!--<person id="18489455">-->
<!--<plan selected="yes">-->
<!--<act type="Home" x="1975974.02484297" y="561890.846198658" end_time="14:27:00" />-->
<!--<leg mode="car" />-->
<!--<act type="Visiting" x="1977412.93127211" y="561934.305250485" start_time="14:20:00" end_time="18:3:00" />-->
<!--<leg mode="car" />-->
<!--<act type="Home" x="1975974.02484297" y="561890.846198658" />-->
<!--</plan>-->
<!--</person>-->

<!--<person id="12279899">-->
<!--<plan selected="yes">-->
<!--<act type="Home" x="1961041.07258474" y="551872.209654279" end_time="6:27:00" />-->
<!--<leg mode="car" />-->
<!--<act type="Shop" x="1961372.7805617" y="544081.142607671" start_time="6:24:00" end_time="7:36:00" />-->
<!--<leg mode="car" />-->
<!--<act type="Home" x="1961009.08604117" y="552084.415145391" start_time="7:45:00" end_time="8:41:00" />-->
<!--<leg mode="car" />-->
<!--<act type="Discretionary" x="1961065.66855809" y="544996.853306791" start_time="8:46:00" end_time="13:0:00" />-->
<!--<leg mode="car" />-->
<!--<act type="Home" x="1961041.07258474" y="551872.209654279" />-->
<!--</plan>-->
<!--</person>-->

<!--<person id="10663412">-->
<!--<plan selected="yes">-->
<!--<act type="Home" x="1970549.30326331" y="531776.458253562" end_time="14:15:00" />-->
<!--<leg mode="car" />-->
<!--<act type="Work" x="1967035.0797905" y="561643.455582689" start_time="14:46:00" end_time="15:34:00" />-->
<!--<leg mode="car" />-->
<!--<act type="Maintenance" x="1967323.67781171" y="544402.277249674" start_time="15:47:00" end_time="16:43:00" />-->
<!--<leg mode="car" />-->
<!--<act type="Maintenance" x="1966783.44323061" y="560435.453579346" start_time="16:40:00" end_time="18:36:00" />-->
<!--<leg mode="car" />-->
<!--<act type="Home" x="1970549.30326331" y="531776.458253562" />-->
<!--</plan>-->
<!--</person>-->

<!--<person id="12835739">-->
<!--<plan selected="yes">-->
<!--<act type="Home" x="2017248.79553508" y="568738.06765111" end_time="6:8:00" />-->
<!--<leg mode="car" />-->
<!--<act type="Work" x="1977210.7423536" y="551662.406167407" start_time="6:11:00" end_time="9:5:00" />-->
<!--<leg mode="car" />-->
<!--<act type="Work" x="1976565.35277509" y="545255.765157791" start_time="9:20:00" end_time="12:21:00" />-->
<!--<leg mode="car" />-->
<!--<act type="Visiting" x="1977037.93140804" y="556732.14925146" start_time="12:16:00" end_time="15:47:00" />-->
<!--<leg mode="car" />-->
<!--<act type="Home" x="2017248.79553508" y="568738.06765111" />-->
<!--</plan>-->
<!--</person>-->

<!--<person id="7241331">-->
<!--<plan selected="yes">-->
<!--<act type="Home" x="2004812.63840379" y="589013.292191448" end_time="6:51:00" />-->
<!--<leg mode="car" />-->
<!--<act type="Escort" x="1962921.57698971" y="561975.036205792" start_time="7:29:00" end_time="11:53:00" />-->
<!--<leg mode="car" />-->
<!--<act type="Work" x="1969047.67318456" y="541481.767453344" start_time="11:57:00" end_time="17:13:00" />-->
<!--<leg mode="car" />-->
<!--<act type="Home" x="2004812.63840379" y="589013.292191448" />-->
<!--</plan>-->
<!--</person>-->

<!--<person id="17158168">-->
<!--<plan selected="yes">-->
<!--<act type="Home" x="1988011.06001843" y="629528.982183997" end_time="8:21:00" />-->
<!--<leg mode="car" />-->
<!--<act type="Work" x="1988013.97960862" y="629780.679867766" start_time="8:27:00" end_time="12:58:00" />-->
<!--<leg mode="car" />-->
<!--<act type="Home" x="1987842.32579456" y="630291.94537664" start_time="13:10:00" end_time="16:33:00" />-->
<!--<leg mode="car" />-->
<!--<act type="Work" x="1987965.3156956" y="629969.253301143" start_time="16:43:00" end_time="27:0:00" />-->
<!--<leg mode="car" />-->
<!--<act type="Home" x="1988011.06001843" y="629528.982183997" />-->
<!--</plan>-->
<!--</person>-->

<!--<person id="7260888">-->
<!--<plan selected="yes">-->
<!--<act type="Home" x="1970859.74214912" y="526723.174857011" end_time="7:48:00" />-->
<!--<leg mode="car" />-->
<!--<act type="Work" x="1973674.37023967" y="539528.897917744" start_time="8:2:00" end_time="9:12:00" />-->
<!--<leg mode="car" />-->
<!--<act type="Shop" x="1975247.63296644" y="534321.259012726" start_time="9:3:00" end_time="10:26:00" />-->
<!--<leg mode="car" />-->
<!--<act type="Shop" x="1972003.77885078" y="528430.790965895" start_time="10:38:00" end_time="12:9:00" />-->
<!--<leg mode="car" />-->
<!--<act type="Home" x="1970859.74214912" y="526723.174857011" />-->
<!--</plan>-->
<!--</person>-->

<!--<person id="6744625">-->
<!--<plan selected="yes">-->
<!--<act type="Home" x="2025412.14976687" y="562886.643050272" end_time="6:54:00" />-->
<!--<leg mode="car" />-->
<!--<act type="Shop" x="1965155.24486759" y="562992.562071704" start_time="7:12:00" end_time="11:56:00" />-->
<!--<leg mode="car" />-->
<!--<act type="Work" x="1964854.32085204" y="558790.557222044" start_time="11:47:00" end_time="17:21:00" />-->
<!--<leg mode="car" />-->
<!--<act type="Home" x="2025412.14976687" y="562886.643050272" />-->
<!--</plan>-->
<!--</person>-->

<!--<person id="9314011">-->
<!--<plan selected="yes">-->
<!--<act type="Home" x="1972499.43429836" y="546129.357749806" end_time="11:50:00" />-->
<!--<leg mode="car" />-->
<!--<act type="Shop" x="1981891.52191194" y="536137.690474406" start_time="11:56:00" end_time="15:22:00" />-->
<!--<leg mode="car" />-->
<!--<act type="Home" x="1972842.21084545" y="546187.606765043" start_time="15:28:00" end_time="17:11:00" />-->
<!--<leg mode="car" />-->
<!--<act type="Visiting" x="1959606.67480887" y="555864.331983085" start_time="17:24:00" end_time="18:58:00" />-->
<!--<leg mode="car" />-->
<!--<act type="Shop" x="1959088.01933392" y="560032.153841056" start_time="19:2:00" end_time="20:36:00" />-->
<!--<leg mode="car" />-->
<!--<act type="Shop" x="1965149.19670864" y="557960.12015433" start_time="20:50:00" end_time="22:50:00" />-->
<!--<leg mode="car" />-->
<!--<act type="Home" x="1972499.43429836" y="546129.357749806" />-->
<!--</plan>-->
<!--</person>-->

<!--<person id="17257362">-->
<!--<plan selected="yes">-->
<!--<act type="Home" x="1994916.69085685" y="561832.386254729" end_time="7:31:00" />-->
<!--<leg mode="car" />-->
<!--<act type="Discretionary" x="1999156.35512084" y="562731.401902707" start_time="8:35:00" end_time="7:58:00" />-->
<!--<leg mode="car" />-->
<!--<act type="Visiting" x="1994809.83165051" y="566078.891086577" start_time="8:10:00" end_time="8:21:00" />-->
<!--<leg mode="car" />-->
<!--<act type="Home" x="1994869.83596902" y="561414.950748683" start_time="8:28:00" end_time="8:56:00" />-->
<!--<leg mode="car" />-->
<!--<act type="Maintenance" x="1993171.52240718" y="567885.776755799" start_time="9:2:00" end_time="9:38:00" />-->
<!--<leg mode="car" />-->
<!--<act type="Home" x="1995025.92421845" y="561256.54939083" start_time="9:47:00" end_time="12:3:00" />-->
<!--<leg mode="car" />-->
<!--<act type="Eatout" x="1959068.01943631" y="576415.212404824" start_time="12:37:00" end_time="23:9:00" />-->
<!--<leg mode="car" />-->
<!--<act type="Home" x="1994916.69085685" y="561832.386254729" />-->
<!--</plan>-->
<!--</person>-->

<!--<person id="8652779">-->
<!--<plan selected="yes">-->
<!--<act type="Home" x="1974297.01952164" y="536025.729388588" end_time="6:9:00" />-->
<!--<leg mode="car" />-->
<!--<act type="Work" x="1969294.29037479" y="565718.622532226" start_time="6:42:00" end_time="15:48:00" />-->
<!--<leg mode="car" />-->
<!--<act type="Home" x="1974297.01952164" y="536025.729388588" />-->
<!--</plan>-->
<!--</person>-->

<!--<person id="1301611">-->
<!--<plan selected="yes">-->
<!--<act type="Home" x="1951249.70118467" y="581077.462221902" end_time="10:48:00" />-->
<!--<leg mode="car" />-->
<!--<act type="Work" x="1949566.37867144" y="581950.494907794" start_time="11:1:00" end_time="15:48:00" />-->
<!--<leg mode="car" />-->
<!--<act type="Home" x="1951249.70118467" y="581077.462221902" />-->
<!--</plan>-->
<!--</person>-->

<!--<person id="17118415">-->
<!--<plan selected="yes">-->
<!--<act type="Home" x="1979885.70716292" y="626351.537497152" end_time="4:21:00" />-->
<!--<leg mode="car" />-->
<!--<act type="Work" x="1987045.99540253" y="565695.835233931" start_time="6:19:00" end_time="17:3:00" />-->
<!--<leg mode="car" />-->
<!--<act type="Home" x="1979885.70716292" y="626351.537497152" />-->
<!--</plan>-->
<!--</person>-->

<!--<person id="16269253">-->
<!--<plan selected="yes">-->
<!--<act type="Home" x="1991598.91979365" y="566480.69012087" end_time="16:55:00" />-->
<!--<leg mode="car" />-->
<!--<act type="Maintenance" x="1957944.4976045" y="579369.272253672" start_time="17:30:00" end_time="17:29:00" />-->
<!--<leg mode="car" />-->
<!--<act type="Home" x="1991598.91979365" y="566480.69012087" />-->
<!--</plan>-->
<!--</person>-->

<!--<person id="10198155">-->
<!--<plan selected="yes">-->
<!--<act type="Home" x="1963394.29972361" y="562041.707791645" end_time="8:26:00" />-->
<!--<leg mode="car" />-->
<!--<act type="Discretionary" x="1968855.0999979" y="544094.295398752" start_time="8:39:00" end_time="11:6:00" />-->
<!--<leg mode="car" />-->
<!--<act type="Discretionary" x="1962768.23532882" y="562302.77986432" start_time="11:17:00" end_time="13:41:00" />-->
<!--<leg mode="car" />-->
<!--<act type="Maintenance" x="1968910.74288196" y="539957.697836179" start_time="13:49:00" end_time="16:42:00" />-->
<!--<leg mode="car" />-->
<!--<act type="Home" x="1963410.93849465" y="562075.284183108" start_time="16:45:00" end_time="17:25:00" />-->
<!--<leg mode="car" />-->
<!--<act type="Eatout" x="1963100.77984562" y="541465.12859791" start_time="17:29:00" end_time="19:19:00" />-->
<!--<leg mode="car" />-->
<!--<act type="Home" x="1963228.10547376" y="561894.72755395" start_time="19:36:00" end_time="19:59:00" />-->
<!--<leg mode="car" />-->
<!--<act type="Eatout" x="1967464.79692269" y="552519.771051928" start_time="20:0:00" end_time="20:18:00" />-->
<!--<leg mode="car" />-->
<!--<act type="Home" x="1963394.29972361" y="562041.707791645" />-->
<!--</plan>-->
<!--</person>-->

<!--<person id="13960871">-->
<!--<plan selected="yes">-->
<!--<act type="Home" x="1979279.60445257" y="561277.450788548" end_time="4:0:00" />-->
<!--<leg mode="car" />-->
<!--<act type="Visiting" x="1981321.0219081" y="562257.174435954" start_time="4:22:00" end_time="4:24:00" />-->
<!--<leg mode="car" />-->
<!--<act type="Shop" x="1978873.759491" y="545279.800728358" start_time="4:33:00" end_time="5:8:00" />-->
<!--<leg mode="car" />-->
<!--<act type="Home" x="1978466.11559948" y="561053.557322562" start_time="5:8:00" end_time="5:42:00" />-->
<!--<leg mode="car" />-->
<!--<act type="Escort" x="1979049.10311289" y="562128.493725839" start_time="5:46:00" end_time="6:2:00" />-->
<!--<leg mode="car" />-->
<!--<act type="Home" x="1979279.60445257" y="561277.450788548" start_time="6:2:00" end_time="7:36:00" />-->
<!--<leg mode="car" />-->
<!--<act type="Escort" x="2013155.91711622" y="631702.965643997" start_time="8:1:00" end_time="8:24:00" />-->
<!--<leg mode="car" />-->
<!--<act type="Escort" x="1978193.09819422" y="561106.641104089" start_time="8:45:00" end_time="8:46:00" />-->
<!--<leg mode="car" />-->
<!--<act type="Eatout" x="1978436.93779649" y="546558.611967778" start_time="8:46:00" end_time="9:24:00" />-->
<!--<leg mode="car" />-->
<!--<act type="Home" x="1979475.92628721" y="560821.798727368" start_time="9:40:00" end_time="14:45:00" />-->
<!--<leg mode="car" />-->
<!--<act type="Maintenance" x="1981691.72300672" y="562533.389601052" start_time="15:4:00" end_time="15:39:00" />-->
<!--<leg mode="car" />-->
<!--<act type="Discretionary" x="1979568.68033558" y="551403.61005001" start_time="15:42:00" end_time="16:31:00" />-->
<!--<leg mode="car" />-->
<!--<act type="Home" x="1979279.60445257" y="561277.450788548" />-->
<!--</plan>-->
<!--</person>-->

<!--<person id="10660873">-->
<!--<plan selected="yes">-->
<!--<act type="Home" x="1989359.51353653" y="536404.293147337" end_time="7:54:00" />-->
<!--<leg mode="car" />-->
<!--<act type="Discretionary" x="1988972.17306609" y="538766.993169074" start_time="7:52:00" end_time="9:43:00" />-->
<!--<leg mode="car" />-->
<!--<act type="Home" x="1989941.54346593" y="536682.430204691" start_time="9:45:00" end_time="13:34:00" />-->
<!--<leg mode="car" />-->
<!--<act type="Maintenance" x="1988065.52670612" y="530705.255413851" start_time="13:45:00" end_time="15:33:00" />-->
<!--<leg mode="car" />-->
<!--<act type="Home" x="1989605.24564507" y="536530.881484864" start_time="15:46:00" end_time="16:55:00" />-->
<!--<leg mode="car" />-->
<!--<act type="Discretionary" x="1988886.42365053" y="538756.010239461" start_time="16:53:00" end_time="16:42:00" />-->
<!--<leg mode="car" />-->
<!--<act type="Home" x="1989359.51353653" y="536404.293147337" />-->
<!--</plan>-->
<!--</person>-->

<!--<person id="11361703">-->
<!--<plan selected="yes">-->
<!--<act type="Home" x="1955705.94761611" y="556495.812785318" end_time="11:57:00" />-->
<!--<leg mode="car" />-->
<!--<act type="Maintenance" x="1966746.61553746" y="551070.896686376" start_time="12:13:00" end_time="13:45:00" />-->
<!--<leg mode="car" />-->
<!--<act type="Maintenance" x="1958759.28746945" y="562462.022907768" start_time="13:55:00" end_time="15:46:00" />-->
<!--<leg mode="car" />-->
<!--<act type="Home" x="1955705.94761611" y="556495.812785318" />-->
<!--</plan>-->
<!--</person>-->

<!--<person id="16966137">-->
<!--<plan selected="yes">-->
<!--<act type="Home" x="1995212.03769559" y="568644.94920352" end_time="4:34:00" />-->
<!--<leg mode="car" />-->
<!--<act type="Work" x="1968579.59866613" y="562960.252581649" start_time="5:24:00" end_time="9:40:00" />-->
<!--<leg mode="car" />-->
<!--<act type="Eatout" x="1971552.35643075" y="560671.542462301" start_time="9:54:00" end_time="16:19:00" />-->
<!--<leg mode="car" />-->
<!--<act type="Home" x="1995212.03769559" y="568644.94920352" />-->
<!--</plan>-->
<!--</person>-->

<!--<person id="7575573">-->
<!--<plan selected="yes">-->
<!--<act type="Home" x="1990085.13642763" y="528856.357888861" end_time="14:18:00" />-->
<!--<leg mode="car" />-->
<!--<act type="Maintenance" x="1989494.51644619" y="527545.48622896" start_time="14:37:00" end_time="16:8:00" />-->
<!--<leg mode="car" />-->
<!--<act type="Home" x="1990085.13642763" y="528856.357888861" />-->
<!--</plan>-->
<!--</person>-->

<!--<person id="11197119">-->
<!--<plan selected="yes">-->
<!--<act type="Home" x="1969011.18500404" y="553181.940805985" end_time="4:48:00" />-->
<!--<leg mode="car" />-->
<!--<act type="Work" x="2003860.7949252" y="549927.021702934" start_time="7:4:00" end_time="16:56:00" />-->
<!--<leg mode="car" />-->
<!--<act type="Home" x="1969011.18500404" y="553181.940805985" />-->
<!--</plan>-->
<!--</person>-->

<!--<person id="357053">-->
<!--<plan selected="yes">-->
<!--<act type="Home" x="1962495.18006111" y="574871.425947927" end_time="10:54:00" />-->
<!--<leg mode="car" />-->
<!--<act type="Maintenance" x="1960318.23646334" y="579369.007331714" start_time="10:54:00" end_time="11:17:00" />-->
<!--<leg mode="car" />-->
<!--<act type="Maintenance" x="1963866.47169825" y="577551.467978617" start_time="11:29:00" end_time="12:3:00" />-->
<!--<leg mode="car" />-->
<!--<act type="Home" x="1961894.71239321" y="575053.014572608" start_time="12:14:00" end_time="13:24:00" />-->
<!--<leg mode="car" />-->
<!--<act type="Escort" x="1964180.89657652" y="576219.974216599" start_time="13:32:00" end_time="15:30:00" />-->
<!--<leg mode="car" />-->
<!--<act type="Home" x="1962495.18006111" y="574871.425947927" />-->
<!--</plan>-->
<!--</person>-->

<!--<person id="9498439">-->
<!--<plan selected="yes">-->
<!--<act type="Home" x="1963611.58646626" y="559964.593646178" end_time="7:2:00" />-->
<!--<leg mode="car" />-->
<!--<act type="Escort" x="1968629.21529488" y="544069.83997537" start_time="7:19:00" end_time="7:19:00" />-->
<!--<leg mode="car" />-->
<!--<act type="Home" x="1963600.05308158" y="560426.365580317" start_time="7:41:00" end_time="8:52:00" />-->
<!--<leg mode="car" />-->
<!--<act type="Escort" x="1963610.41529226" y="560100.045568462" start_time="8:57:00" end_time="8:50:00" />-->
<!--<leg mode="car" />-->
<!--<act type="Shop" x="1964257.19584677" y="554517.488384088" start_time="8:52:00" end_time="8:58:00" />-->
<!--<leg mode="car" />-->
<!--<act type="Escort" x="1964182.93799679" y="561579.03988381" start_time="8:50:00" end_time="8:50:00" />-->
<!--<leg mode="car" />-->
<!--<act type="Escort" x="1962775.63884134" y="557749.875535588" start_time="9:1:00" end_time="9:12:00" />-->
<!--<leg mode="car" />-->
<!--<act type="Eatout" x="1960212.19487382" y="551129.156031406" start_time="9:13:00" end_time="9:22:00" />-->
<!--<leg mode="car" />-->
<!--<act type="Shop" x="1969978.67863611" y="545239.695946927" start_time="9:48:00" end_time="9:29:00" />-->
<!--<leg mode="car" />-->
<!--<act type="Discretionary" x="1970816.80460405" y="541248.763284195" start_time="9:41:00" end_time="9:50:00" />-->
<!--<leg mode="car" />-->
<!--<act type="Home" x="1963497.04303355" y="560351.766091107" start_time="9:49:00" end_time="14:55:00" />-->
<!--<leg mode="car" />-->
<!--<act type="Escort" x="1968528.7325364" y="544017.565196625" start_time="15:10:00" end_time="15:24:00" />-->
<!--<leg mode="car" />-->
<!--<act type="Escort" x="1962965.35168344" y="560833.671880818" start_time="15:34:00" end_time="15:45:00" />-->
<!--<leg mode="car" />-->
<!--<act type="Home" x="1962926.79504061" y="560788.041775476" start_time="15:56:00" end_time="16:12:00" />-->
<!--<leg mode="car" />-->