<?xml version="1.0" ?>
<!DOCTYPE network SYSTEM "http://www.matsim.org/files/dtd/network_v1.dtd">
<network>
   <nodes>
      <node id="dummy_1" x="-1000" y="-1000"/>
      <node id="dummy_2" x="7000" y="9000"/>
      <node id="dummy_3" x="0" y="0"/>
      <node id="dummy_4" x="0" y="0"/>
      <node id="dummy_5" x="0" y="0"/>
      <node id="dummy_6" x="0" y="0"/>
      <node id="dummy_7" x="0" y="0"/>
      <node id="dummy_8" x="0" y="0"/>
      <node id="dummy_9" x="0" y="0"/>

      <node id="1" x="1000" y="0000"/>
      <node id="2" x="0000" y="0000"/>
      <node id="3" x="0000" y="1000"/>
      <node id="4" x="0000" y="7000"/>
      <node id="5" x="0000" y="8000"/>
      <node id="6" x="6000" y="8000"/>
      <node id="7" x="6000" y="7000"/>
      <node id="8" x="1000" y="6000"/>

   </nodes>
   <links capperiod="01:00:00">

      <link id="12" from="1" to="2" length="100" freespeed="15" capacity="100" permlanes="1"/>
      
      <link id="23" from="2" to="3" length="100" freespeed="15" capacity="100" permlanes="1"/>
      <link id="32" from="3" to="2" length="100" freespeed="15" capacity="100" permlanes="1"/>
      
      <link id="34" from="3" to="4" length="600" freespeed="15" capacity="100" permlanes="1"/>
      <link id="43" from="4" to="3" length="600" freespeed="15" capacity="100" permlanes="1"/>
      
      <link id="45" from="4" to="5" length="100" freespeed="15" capacity="100" permlanes="1"/>
      <link id="56" from="5" to="6" length="600" freespeed="15" capacity="100" permlanes="1"/>
      <link id="67" from="6" to="7" length="100" freespeed="15" capacity="100" permlanes="1"/>
      <link id="78" from="7" to="8" length="600" freespeed="15" capacity="100" permlanes="1"/>
      <link id="84" from="8" to="4" length="100" freespeed="15" capacity="100" permlanes="1"/>
      
   </links>
</network>
