<?xml version="1.0" ?>
<!DOCTYPE network SYSTEM "http://www.matsim.org/files/dtd/network_v1.dtd">
<network>
   <nodes>
      <node id="dummy_1" x="-1000" y="-1000"/>
      <node id="dummy_2" x="3000" y="3000"/>
      <node id="dummy_3" x="0" y="0"/>
      <node id="dummy_4" x="0" y="0"/>
      <node id="dummy_5" x="0" y="0"/>
      <node id="dummy_6" x="0" y="0"/>
      <node id="dummy_7" x="0" y="0"/>
      <node id="dummy_8" x="0" y="0"/>
      <node id="dummy_9" x="0" y="0"/>

      <node id="1" x="0000" y="0000"/>
      <node id="2" x="1000" y="0000"/>
      <node id="3" x="2000" y="0000"/>
      <node id="4" x="0000" y="1000"/>
      <node id="5" x="1000" y="1000"/>
      <node id="6" x="2000" y="1000"/>
      <node id="7" x="0000" y="2000"/>
      <node id="8" x="1000" y="2000"/>
      <node id="9" x="2000" y="2000"/>

   </nodes>
   <links capperiod="01:00:00">

      <link id="12" from="1" to="2" length="100" freespeed="15" capacity="100" permlanes="1"/>
      <link id="21" from="2" to="1" length="100" freespeed="15" capacity="100" permlanes="1"/>
      
      <link id="23" from="2" to="3" length="100" freespeed="15" capacity="100" permlanes="1"/>
      <link id="32" from="3" to="2" length="100" freespeed="15" capacity="100" permlanes="1"/>

      <link id="45" from="4" to="5" length="100" freespeed="15" capacity="100" permlanes="1"/>
      <link id="54" from="5" to="4" length="100" freespeed="15" capacity="100" permlanes="1"/>

      <link id="56" from="5" to="6" length="100" freespeed="15" capacity="100" permlanes="1"/>
      <link id="65" from="6" to="5" length="100" freespeed="15" capacity="100" permlanes="1"/>

      <link id="78" from="7" to="8" length="100" freespeed="15" capacity="100" permlanes="1"/>
      <link id="87" from="8" to="7" length="100" freespeed="15" capacity="100" permlanes="1"/>

      <link id="89" from="8" to="9" length="100" freespeed="15" capacity="100" permlanes="1"/>
      <link id="98" from="9" to="8" length="100" freespeed="15" capacity="100" permlanes="1"/>

      <link id="14" from="1" to="4" length="100" freespeed="15" capacity="100" permlanes="1"/>
      <link id="41" from="4" to="1" length="100" freespeed="15" capacity="100" permlanes="1"/>

      <link id="47" from="4" to="7" length="100" freespeed="15" capacity="100" permlanes="1"/>
      <link id="74" from="7" to="4" length="100" freespeed="15" capacity="100" permlanes="1"/>

      <link id="25" from="2" to="5" length="100" freespeed="15" capacity="100" permlanes="1"/>
      <link id="52" from="5" to="2" length="100" freespeed="15" capacity="100" permlanes="1"/>

      <link id="58" from="5" to="8" length="100" freespeed="15" capacity="100" permlanes="1"/>
      <link id="85" from="8" to="5" length="100" freespeed="15" capacity="100" permlanes="1"/>

      <link id="36" from="3" to="6" length="100" freespeed="15" capacity="100" permlanes="1"/>
      <link id="63" from="6" to="3" length="100" freespeed="15" capacity="100" permlanes="1"/>

      <link id="69" from="6" to="9" length="100" freespeed="15" capacity="100" permlanes="1"/>
      <link id="96" from="9" to="6" length="100" freespeed="15" capacity="100" permlanes="1"/>
   </links>
</network>
