<?xml version="1.0" encoding="UTF-8"?>
<networkChangeEvents xmlns="http://www.matsim.org/files/dtd" xmlns:xsi="http://www.w3.org/2001/XMLSchema-instance" xsi:schemaLocation="http://www.matsim.org/files/dtd http://www.matsim.org/files/dtd/networkChangeEvents.xsd">

	<networkChangeEvent startTime="00:00:00">
		<link refId="2"/>
		<freespeed type="absolute" value="7.500018750046875"/>
	</networkChangeEvent>

	<networkChangeEvent startTime="01:00:00">
		<link refId="2"/>
		<freespeed type="absolute" value="7.500018750046875"/>
	</networkChangeEvent>

	<networkChangeEvent startTime="02:00:00">
		<link refId="2"/>
		<freespeed type="absolute" value="7.500018750046875"/>
	</networkChangeEvent>

	<networkChangeEvent startTime="03:00:00">
		<link refId="2"/>
		<freespeed type="absolute" value="7.500018750046875"/>
	</networkChangeEvent>

	<networkChangeEvent startTime="04:00:00">
		<link refId="2"/>
		<freespeed type="absolute" value="7.500018750046875"/>
	</networkChangeEvent>

	<networkChangeEvent startTime="05:00:00">
		<link refId="2"/>
		<freespeed type="absolute" value="7.500018750046875"/>
	</networkChangeEvent>

	<networkChangeEvent startTime="06:00:00">
		<link refId="2"/>
		<freespeed type="absolute" value="7.500018750046875"/>
	</networkChangeEvent>

	<networkChangeEvent startTime="07:00:00">
		<link refId="2"/>
		<freespeed type="absolute" value="7.500018750046875"/>
	</networkChangeEvent>

	<networkChangeEvent startTime="08:00:00">
		<link refId="2"/>
		<freespeed type="absolute" value="0.3125"/>
	</networkChangeEvent>

	<networkChangeEvent startTime="09:00:00">
		<link refId="2"/>
		<freespeed type="absolute" value="0.3472222222222222"/>
	</networkChangeEvent>

	<networkChangeEvent startTime="10:00:00">
		<link refId="2"/>
		<freespeed type="absolute" value="0.3472222222222222"/>
	</networkChangeEvent>

	<networkChangeEvent startTime="11:00:00">
		<link refId="2"/>
		<freespeed type="absolute" value="7.500018750046875"/>
	</networkChangeEvent>

	<networkChangeEvent startTime="12:00:00">
		<link refId="2"/>
		<freespeed type="absolute" value="7.500018750046875"/>
	</networkChangeEvent>

	<networkChangeEvent startTime="13:00:00">
		<link refId="2"/>
		<freespeed type="absolute" value="7.500018750046875"/>
	</networkChangeEvent>

	<networkChangeEvent startTime="14:00:00">
		<link refId="2"/>
		<freespeed type="absolute" value="7.500018750046875"/>
	</networkChangeEvent>

	<networkChangeEvent startTime="15:00:00">
		<link refId="2"/>
		<freespeed type="absolute" value="7.500018750046875"/>
	</networkChangeEvent>

	<networkChangeEvent startTime="16:00:00">
		<link refId="2"/>
		<freespeed type="absolute" value="0.30864197530864196"/>
	</networkChangeEvent>

	<networkChangeEvent startTime="17:00:00">
		<link refId="2"/>
		<freespeed type="absolute" value="0.30864197530864196"/>
	</networkChangeEvent>

	<networkChangeEvent startTime="18:00:00">
		<link refId="2"/>
		<freespeed type="absolute" value="0.30864197530864196"/>
	</networkChangeEvent>

	<networkChangeEvent startTime="19:00:00">
		<link refId="2"/>
		<freespeed type="absolute" value="7.500018750046875"/>
	</networkChangeEvent>

	<networkChangeEvent startTime="20:00:00">
		<link refId="2"/>
		<freespeed type="absolute" value="7.500018750046875"/>
	</networkChangeEvent>

	<networkChangeEvent startTime="21:00:00">
		<link refId="2"/>
		<freespeed type="absolute" value="7.500018750046875"/>
	</networkChangeEvent>

	<networkChangeEvent startTime="22:00:00">
		<link refId="2"/>
		<freespeed type="absolute" value="7.500018750046875"/>
	</networkChangeEvent>

	<networkChangeEvent startTime="23:00:00">
		<link refId="2"/>
		<freespeed type="absolute" value="7.500018750046875"/>
	</networkChangeEvent>

	<networkChangeEvent startTime="00:00:00">
		<link refId="3"/>
		<freespeed type="absolute" value="7.500018750046875"/>
	</networkChangeEvent>

	<networkChangeEvent startTime="01:00:00">
		<link refId="3"/>
		<freespeed type="absolute" value="7.500018750046875"/>
	</networkChangeEvent>

	<networkChangeEvent startTime="02:00:00">
		<link refId="3"/>
		<freespeed type="absolute" value="7.500018750046875"/>
	</networkChangeEvent>

	<networkChangeEvent startTime="03:00:00">
		<link refId="3"/>
		<freespeed type="absolute" value="7.500018750046875"/>
	</networkChangeEvent>

	<networkChangeEvent startTime="04:00:00">
		<link refId="3"/>
		<freespeed type="absolute" value="7.500018750046875"/>
	</networkChangeEvent>

	<networkChangeEvent startTime="05:00:00">
		<link refId="3"/>
		<freespeed type="absolute" value="7.500018750046875"/>
	</networkChangeEvent>

	<networkChangeEvent startTime="06:00:00">
		<link refId="3"/>
		<freespeed type="absolute" value="7.500018750046875"/>
	</networkChangeEvent>

	<networkChangeEvent startTime="07:00:00">
		<link refId="3"/>
		<freespeed type="absolute" value="7.500018750046875"/>
	</networkChangeEvent>

	<networkChangeEvent startTime="08:00:00">
		<link refId="3"/>
		<freespeed type="absolute" value="0.3035822707953855"/>
	</networkChangeEvent>

	<networkChangeEvent startTime="09:00:00">
		<link refId="3"/>
		<freespeed type="absolute" value="0.26602819898909286"/>
	</networkChangeEvent>

	<networkChangeEvent startTime="10:00:00">
		<link refId="3"/>
		<freespeed type="absolute" value="0.20848713603097618"/>
	</networkChangeEvent>

	<networkChangeEvent startTime="11:00:00">
		<link refId="3"/>
		<freespeed type="absolute" value="0.18385732671446958"/>
	</networkChangeEvent>

	<networkChangeEvent startTime="12:00:00">
		<link refId="3"/>
		<freespeed type="absolute" value="0.34083162917518744"/>
	</networkChangeEvent>

	<networkChangeEvent startTime="13:00:00">
		<link refId="3"/>
		<freespeed type="absolute" value="7.500018750046875"/>
	</networkChangeEvent>

	<networkChangeEvent startTime="14:00:00">
		<link refId="3"/>
		<freespeed type="absolute" value="7.500018750046875"/>
	</networkChangeEvent>

	<networkChangeEvent startTime="15:00:00">
		<link refId="3"/>
		<freespeed type="absolute" value="7.500018750046875"/>
	</networkChangeEvent>

	<networkChangeEvent startTime="16:00:00">
		<link refId="3"/>
		<freespeed type="absolute" value="0.30864197530864196"/>
	</networkChangeEvent>

	<networkChangeEvent startTime="17:00:00">
		<link refId="3"/>
		<freespeed type="absolute" value="0.30864197530864196"/>
	</networkChangeEvent>

	<networkChangeEvent startTime="18:00:00">
		<link refId="3"/>
		<freespeed type="absolute" value="0.30864197530864196"/>
	</networkChangeEvent>

	<networkChangeEvent startTime="19:00:00">
		<link refId="3"/>
		<freespeed type="absolute" value="0.30864197530864196"/>
	</networkChangeEvent>

	<networkChangeEvent startTime="20:00:00">
		<link refId="3"/>
		<freespeed type="absolute" value="7.462686567164179"/>
	</networkChangeEvent>

	<networkChangeEvent startTime="21:00:00">
		<link refId="3"/>
		<freespeed type="absolute" value="7.462686567164179"/>
	</networkChangeEvent>

	<networkChangeEvent startTime="22:00:00">
		<link refId="3"/>
		<freespeed type="absolute" value="7.500018750046875"/>
	</networkChangeEvent>

	<networkChangeEvent startTime="23:00:00">
		<link refId="3"/>
		<freespeed type="absolute" value="7.462686567164179"/>
	</networkChangeEvent>

	<networkChangeEvent startTime="00:00:00">
		<link refId="4"/>
		<freespeed type="absolute" value="7.500018750046875"/>
	</networkChangeEvent>

	<networkChangeEvent startTime="01:00:00">
		<link refId="4"/>
		<freespeed type="absolute" value="7.500018750046875"/>
	</networkChangeEvent>

	<networkChangeEvent startTime="02:00:00">
		<link refId="4"/>
		<freespeed type="absolute" value="7.500018750046875"/>
	</networkChangeEvent>

	<networkChangeEvent startTime="03:00:00">
		<link refId="4"/>
		<freespeed type="absolute" value="7.500018750046875"/>
	</networkChangeEvent>

	<networkChangeEvent startTime="04:00:00">
		<link refId="4"/>
		<freespeed type="absolute" value="7.500018750046875"/>
	</networkChangeEvent>

	<networkChangeEvent startTime="05:00:00">
		<link refId="4"/>
		<freespeed type="absolute" value="7.500018750046875"/>
	</networkChangeEvent>

	<networkChangeEvent startTime="06:00:00">
		<link refId="4"/>
		<freespeed type="absolute" value="7.500018750046875"/>
	</networkChangeEvent>

	<networkChangeEvent startTime="07:00:00">
		<link refId="4"/>
		<freespeed type="absolute" value="7.500018750046875"/>
	</networkChangeEvent>

	<networkChangeEvent startTime="08:00:00">
		<link refId="4"/>
		<freespeed type="absolute" value="0.32407410408093557"/>
	</networkChangeEvent>

	<networkChangeEvent startTime="09:00:00">
		<link refId="4"/>
		<freespeed type="absolute" value="0.5208333333333334"/>
	</networkChangeEvent>

	<networkChangeEvent startTime="10:00:00">
		<link refId="4"/>
		<freespeed type="absolute" value="1.8097221895466826"/>
	</networkChangeEvent>

	<networkChangeEvent startTime="11:00:00">
		<link refId="4"/>
		<freespeed type="absolute" value="7.462686567164179"/>
	</networkChangeEvent>

	<networkChangeEvent startTime="12:00:00">
		<link refId="4"/>
		<freespeed type="absolute" value="7.462686567164179"/>
	</networkChangeEvent>

	<networkChangeEvent startTime="13:00:00">
		<link refId="4"/>
		<freespeed type="absolute" value="7.500018750046875"/>
	</networkChangeEvent>

	<networkChangeEvent startTime="14:00:00">
		<link refId="4"/>
		<freespeed type="absolute" value="7.500018750046875"/>
	</networkChangeEvent>

	<networkChangeEvent startTime="15:00:00">
		<link refId="4"/>
		<freespeed type="absolute" value="7.500018750046875"/>
	</networkChangeEvent>

	<networkChangeEvent startTime="16:00:00">
		<link refId="4"/>
		<freespeed type="absolute" value="0.3787878787878788"/>
	</networkChangeEvent>

	<networkChangeEvent startTime="17:00:00">
		<link refId="4"/>
		<freespeed type="absolute" value="7.462686567164179"/>
	</networkChangeEvent>

	<networkChangeEvent startTime="18:00:00">
		<link refId="4"/>
		<freespeed type="absolute" value="7.462686567164179"/>
	</networkChangeEvent>

	<networkChangeEvent startTime="19:00:00">
		<link refId="4"/>
		<freespeed type="absolute" value="7.462686567164179"/>
	</networkChangeEvent>

	<networkChangeEvent startTime="20:00:00">
		<link refId="4"/>
		<freespeed type="absolute" value="7.462686567164179"/>
	</networkChangeEvent>

	<networkChangeEvent startTime="21:00:00">
		<link refId="4"/>
		<freespeed type="absolute" value="7.500018750046875"/>
	</networkChangeEvent>

	<networkChangeEvent startTime="22:00:00">
		<link refId="4"/>
		<freespeed type="absolute" value="7.500018750046875"/>
	</networkChangeEvent>

	<networkChangeEvent startTime="23:00:00">
		<link refId="4"/>
		<freespeed type="absolute" value="7.500018750046875"/>
	</networkChangeEvent>

	<networkChangeEvent startTime="00:00:00">
		<link refId="5"/>
		<freespeed type="absolute" value="7.500018750046875"/>
	</networkChangeEvent>

	<networkChangeEvent startTime="01:00:00">
		<link refId="5"/>
		<freespeed type="absolute" value="7.500018750046875"/>
	</networkChangeEvent>

	<networkChangeEvent startTime="02:00:00">
		<link refId="5"/>
		<freespeed type="absolute" value="7.500018750046875"/>
	</networkChangeEvent>

	<networkChangeEvent startTime="03:00:00">
		<link refId="5"/>
		<freespeed type="absolute" value="7.500018750046875"/>
	</networkChangeEvent>

	<networkChangeEvent startTime="04:00:00">
		<link refId="5"/>
		<freespeed type="absolute" value="7.500018750046875"/>
	</networkChangeEvent>

	<networkChangeEvent startTime="05:00:00">
		<link refId="5"/>
		<freespeed type="absolute" value="7.500018750046875"/>
	</networkChangeEvent>

	<networkChangeEvent startTime="06:00:00">
		<link refId="5"/>
		<freespeed type="absolute" value="7.500018750046875"/>
	</networkChangeEvent>

	<networkChangeEvent startTime="07:00:00">
		<link refId="5"/>
		<freespeed type="absolute" value="7.500018750046875"/>
	</networkChangeEvent>

	<networkChangeEvent startTime="08:00:00">
		<link refId="5"/>
		<freespeed type="absolute" value="0.29766741857456597"/>
	</networkChangeEvent>

	<networkChangeEvent startTime="09:00:00">
		<link refId="5"/>
		<freespeed type="absolute" value="0.24590186105905507"/>
	</networkChangeEvent>

	<networkChangeEvent startTime="10:00:00">
		<link refId="5"/>
		<freespeed type="absolute" value="0.20534538683374662"/>
	</networkChangeEvent>

	<networkChangeEvent startTime="11:00:00">
		<link refId="5"/>
		<freespeed type="absolute" value="0.19381354904006087"/>
	</networkChangeEvent>

	<networkChangeEvent startTime="12:00:00">
		<link refId="5"/>
		<freespeed type="absolute" value="0.2178175164054708"/>
	</networkChangeEvent>

	<networkChangeEvent startTime="13:00:00">
		<link refId="5"/>
		<freespeed type="absolute" value="1.0090837721165935"/>
	</networkChangeEvent>

	<networkChangeEvent startTime="14:00:00">
		<link refId="5"/>
		<freespeed type="absolute" value="7.500018750046875"/>
	</networkChangeEvent>

	<networkChangeEvent startTime="15:00:00">
		<link refId="5"/>
		<freespeed type="absolute" value="7.500018750046875"/>
	</networkChangeEvent>

	<networkChangeEvent startTime="16:00:00">
		<link refId="5"/>
		<freespeed type="absolute" value="0.5167961327111796"/>
	</networkChangeEvent>

	<networkChangeEvent startTime="17:00:00">
		<link refId="5"/>
		<freespeed type="absolute" value="0.8382229673093042"/>
	</networkChangeEvent>

	<networkChangeEvent startTime="18:00:00">
		<link refId="5"/>
		<freespeed type="absolute" value="7.462686567164179"/>
	</networkChangeEvent>

	<networkChangeEvent startTime="19:00:00">
		<link refId="5"/>
		<freespeed type="absolute" value="7.462686567164179"/>
	</networkChangeEvent>

	<networkChangeEvent startTime="20:00:00">
		<link refId="5"/>
		<freespeed type="absolute" value="0.10663255562300657"/>
	</networkChangeEvent>

	<networkChangeEvent startTime="21:00:00">
		<link refId="5"/>
		<freespeed type="absolute" value="0.16452780519907864"/>
	</networkChangeEvent>

	<networkChangeEvent startTime="22:00:00">
		<link refId="5"/>
		<freespeed type="absolute" value="0.19091256204658266"/>
	</networkChangeEvent>

	<networkChangeEvent startTime="23:00:00">
		<link refId="5"/>
		<freespeed type="absolute" value="0.3412969283276451"/>
	</networkChangeEvent>

	<networkChangeEvent startTime="00:00:00">
		<link refId="6"/>
		<freespeed type="absolute" value="7.500018750046875"/>
	</networkChangeEvent>

	<networkChangeEvent startTime="01:00:00">
		<link refId="6"/>
		<freespeed type="absolute" value="7.500018750046875"/>
	</networkChangeEvent>

	<networkChangeEvent startTime="02:00:00">
		<link refId="6"/>
		<freespeed type="absolute" value="7.500018750046875"/>
	</networkChangeEvent>

	<networkChangeEvent startTime="03:00:00">
		<link refId="6"/>
		<freespeed type="absolute" value="7.500018750046875"/>
	</networkChangeEvent>

	<networkChangeEvent startTime="04:00:00">
		<link refId="6"/>
		<freespeed type="absolute" value="7.500018750046875"/>
	</networkChangeEvent>

	<networkChangeEvent startTime="05:00:00">
		<link refId="6"/>
		<freespeed type="absolute" value="7.500018750046875"/>
	</networkChangeEvent>

	<networkChangeEvent startTime="06:00:00">
		<link refId="6"/>
		<freespeed type="absolute" value="7.500018750046875"/>
	</networkChangeEvent>

	<networkChangeEvent startTime="07:00:00">
		<link refId="6"/>
		<freespeed type="absolute" value="7.500018750046875"/>
	</networkChangeEvent>

	<networkChangeEvent startTime="08:00:00">
		<link refId="6"/>
		<freespeed type="absolute" value="0.3472222222222222"/>
	</networkChangeEvent>

	<networkChangeEvent startTime="09:00:00">
		<link refId="6"/>
		<freespeed type="absolute" value="0.898069151324652"/>
	</networkChangeEvent>

	<networkChangeEvent startTime="10:00:00">
		<link refId="6"/>
		<freespeed type="absolute" value="7.462686567164179"/>
	</networkChangeEvent>

	<networkChangeEvent startTime="11:00:00">
		<link refId="6"/>
		<freespeed type="absolute" value="7.462686567164179"/>
	</networkChangeEvent>

	<networkChangeEvent startTime="12:00:00">
		<link refId="6"/>
		<freespeed type="absolute" value="7.462686567164179"/>
	</networkChangeEvent>

	<networkChangeEvent startTime="13:00:00">
		<link refId="6"/>
		<freespeed type="absolute" value="7.462686567164179"/>
	</networkChangeEvent>

	<networkChangeEvent startTime="14:00:00">
		<link refId="6"/>
		<freespeed type="absolute" value="7.462686567164179"/>
	</networkChangeEvent>

	<networkChangeEvent startTime="15:00:00">
		<link refId="6"/>
		<freespeed type="absolute" value="7.500018750046875"/>
	</networkChangeEvent>

	<networkChangeEvent startTime="16:00:00">
		<link refId="6"/>
		<freespeed type="absolute" value="7.500018750046875"/>
	</networkChangeEvent>

	<networkChangeEvent startTime="17:00:00">
		<link refId="6"/>
		<freespeed type="absolute" value="7.500018750046875"/>
	</networkChangeEvent>

	<networkChangeEvent startTime="18:00:00">
		<link refId="6"/>
		<freespeed type="absolute" value="7.500018750046875"/>
	</networkChangeEvent>

	<networkChangeEvent startTime="19:00:00">
		<link refId="6"/>
		<freespeed type="absolute" value="7.500018750046875"/>
	</networkChangeEvent>

	<networkChangeEvent startTime="20:00:00">
		<link refId="6"/>
		<freespeed type="absolute" value="7.462686567164179"/>
	</networkChangeEvent>

	<networkChangeEvent startTime="21:00:00">
		<link refId="6"/>
		<freespeed type="absolute" value="7.462686567164179"/>
	</networkChangeEvent>

	<networkChangeEvent startTime="22:00:00">
		<link refId="6"/>
		<freespeed type="absolute" value="7.462686567164179"/>
	</networkChangeEvent>

	<networkChangeEvent startTime="23:00:00">
		<link refId="6"/>
		<freespeed type="absolute" value="7.462686567164179"/>
	</networkChangeEvent>

	<networkChangeEvent startTime="00:00:00">
		<link refId="7"/>
		<freespeed type="absolute" value="7.500018750046875"/>
	</networkChangeEvent>

	<networkChangeEvent startTime="01:00:00">
		<link refId="7"/>
		<freespeed type="absolute" value="7.500018750046875"/>
	</networkChangeEvent>

	<networkChangeEvent startTime="02:00:00">
		<link refId="7"/>
		<freespeed type="absolute" value="7.500018750046875"/>
	</networkChangeEvent>

	<networkChangeEvent startTime="03:00:00">
		<link refId="7"/>
		<freespeed type="absolute" value="7.500018750046875"/>
	</networkChangeEvent>

	<networkChangeEvent startTime="04:00:00">
		<link refId="7"/>
		<freespeed type="absolute" value="7.500018750046875"/>
	</networkChangeEvent>

	<networkChangeEvent startTime="05:00:00">
		<link refId="7"/>
		<freespeed type="absolute" value="7.500018750046875"/>
	</networkChangeEvent>

	<networkChangeEvent startTime="06:00:00">
		<link refId="7"/>
		<freespeed type="absolute" value="7.500018750046875"/>
	</networkChangeEvent>

	<networkChangeEvent startTime="07:00:00">
		<link refId="7"/>
		<freespeed type="absolute" value="7.500018750046875"/>
	</networkChangeEvent>

	<networkChangeEvent startTime="08:00:00">
		<link refId="7"/>
		<freespeed type="absolute" value="0.2689412643036411"/>
	</networkChangeEvent>

	<networkChangeEvent startTime="09:00:00">
		<link refId="7"/>
		<freespeed type="absolute" value="0.20548235132632695"/>
	</networkChangeEvent>

	<networkChangeEvent startTime="10:00:00">
		<link refId="7"/>
		<freespeed type="absolute" value="0.23421655615939188"/>
	</networkChangeEvent>

	<networkChangeEvent startTime="11:00:00">
		<link refId="7"/>
		<freespeed type="absolute" value="0.2946375957572186"/>
	</networkChangeEvent>

	<networkChangeEvent startTime="12:00:00">
		<link refId="7"/>
		<freespeed type="absolute" value="0.8880994671403197"/>
	</networkChangeEvent>

	<networkChangeEvent startTime="13:00:00">
		<link refId="7"/>
		<freespeed type="absolute" value="1.5974466412885644"/>
	</networkChangeEvent>

	<networkChangeEvent startTime="14:00:00">
		<link refId="7"/>
		<freespeed type="absolute" value="1.7064846416382253"/>
	</networkChangeEvent>

	<networkChangeEvent startTime="15:00:00">
		<link refId="7"/>
		<freespeed type="absolute" value="7.500018750046875"/>
	</networkChangeEvent>

	<networkChangeEvent startTime="16:00:00">
		<link refId="7"/>
		<freespeed type="absolute" value="0.30864197530864196"/>
	</networkChangeEvent>

	<networkChangeEvent startTime="17:00:00">
		<link refId="7"/>
		<freespeed type="absolute" value="7.500018750046875"/>
	</networkChangeEvent>

	<networkChangeEvent startTime="18:00:00">
		<link refId="7"/>
		<freespeed type="absolute" value="7.500018750046875"/>
	</networkChangeEvent>

	<networkChangeEvent startTime="19:00:00">
		<link refId="7"/>
		<freespeed type="absolute" value="7.500018750046875"/>
	</networkChangeEvent>

	<networkChangeEvent startTime="20:00:00">
		<link refId="7"/>
		<freespeed type="absolute" value="7.462686567164179"/>
	</networkChangeEvent>

	<networkChangeEvent startTime="21:00:00">
		<link refId="7"/>
		<freespeed type="absolute" value="3.194888178913738"/>
	</networkChangeEvent>

	<networkChangeEvent startTime="22:00:00">
		<link refId="7"/>
		<freespeed type="absolute" value="1.9638687428687016"/>
	</networkChangeEvent>

	<networkChangeEvent startTime="23:00:00">
		<link refId="7"/>
		<freespeed type="absolute" value="7.500018750046875"/>
	</networkChangeEvent>

	<networkChangeEvent startTime="00:00:00">
		<link refId="8"/>
		<freespeed type="absolute" value="7.500018750046875"/>
	</networkChangeEvent>

	<networkChangeEvent startTime="01:00:00">
		<link refId="8"/>
		<freespeed type="absolute" value="7.500018750046875"/>
	</networkChangeEvent>

	<networkChangeEvent startTime="02:00:00">
		<link refId="8"/>
		<freespeed type="absolute" value="7.500018750046875"/>
	</networkChangeEvent>

	<networkChangeEvent startTime="03:00:00">
		<link refId="8"/>
		<freespeed type="absolute" value="7.500018750046875"/>
	</networkChangeEvent>

	<networkChangeEvent startTime="04:00:00">
		<link refId="8"/>
		<freespeed type="absolute" value="7.500018750046875"/>
	</networkChangeEvent>

	<networkChangeEvent startTime="05:00:00">
		<link refId="8"/>
		<freespeed type="absolute" value="7.500018750046875"/>
	</networkChangeEvent>

	<networkChangeEvent startTime="06:00:00">
		<link refId="8"/>
		<freespeed type="absolute" value="7.500018750046875"/>
	</networkChangeEvent>

	<networkChangeEvent startTime="07:00:00">
		<link refId="8"/>
		<freespeed type="absolute" value="7.500018750046875"/>
	</networkChangeEvent>

	<networkChangeEvent startTime="08:00:00">
		<link refId="8"/>
		<freespeed type="absolute" value="0.4166666666666667"/>
	</networkChangeEvent>

	<networkChangeEvent startTime="09:00:00">
		<link refId="8"/>
		<freespeed type="absolute" value="1.3888888888888888"/>
	</networkChangeEvent>

	<networkChangeEvent startTime="10:00:00">
		<link refId="8"/>
		<freespeed type="absolute" value="7.462686567164179"/>
	</networkChangeEvent>

	<networkChangeEvent startTime="11:00:00">
		<link refId="8"/>
		<freespeed type="absolute" value="7.462686567164179"/>
	</networkChangeEvent>

	<networkChangeEvent startTime="12:00:00">
		<link refId="8"/>
		<freespeed type="absolute" value="7.462686567164179"/>
	</networkChangeEvent>

	<networkChangeEvent startTime="13:00:00">
		<link refId="8"/>
		<freespeed type="absolute" value="7.462686567164179"/>
	</networkChangeEvent>

	<networkChangeEvent startTime="14:00:00">
		<link refId="8"/>
		<freespeed type="absolute" value="7.462686567164179"/>
	</networkChangeEvent>

	<networkChangeEvent startTime="15:00:00">
		<link refId="8"/>
		<freespeed type="absolute" value="7.500018750046875"/>
	</networkChangeEvent>

	<networkChangeEvent startTime="16:00:00">
		<link refId="8"/>
		<freespeed type="absolute" value="7.500018750046875"/>
	</networkChangeEvent>

	<networkChangeEvent startTime="17:00:00">
		<link refId="8"/>
		<freespeed type="absolute" value="7.500018750046875"/>
	</networkChangeEvent>

	<networkChangeEvent startTime="18:00:00">
		<link refId="8"/>
		<freespeed type="absolute" value="7.500018750046875"/>
	</networkChangeEvent>

	<networkChangeEvent startTime="19:00:00">
		<link refId="8"/>
		<freespeed type="absolute" value="7.500018750046875"/>
	</networkChangeEvent>

	<networkChangeEvent startTime="20:00:00">
		<link refId="8"/>
		<freespeed type="absolute" value="7.462686567164179"/>
	</networkChangeEvent>

	<networkChangeEvent startTime="21:00:00">
		<link refId="8"/>
		<freespeed type="absolute" value="7.462686567164179"/>
	</networkChangeEvent>

	<networkChangeEvent startTime="22:00:00">
		<link refId="8"/>
		<freespeed type="absolute" value="7.462686567164179"/>
	</networkChangeEvent>

	<networkChangeEvent startTime="23:00:00">
		<link refId="8"/>
		<freespeed type="absolute" value="7.500018750046875"/>
	</networkChangeEvent>

	<networkChangeEvent startTime="00:00:00">
		<link refId="9"/>
		<freespeed type="absolute" value="7.500018750046875"/>
	</networkChangeEvent>

	<networkChangeEvent startTime="01:00:00">
		<link refId="9"/>
		<freespeed type="absolute" value="7.500018750046875"/>
	</networkChangeEvent>

	<networkChangeEvent startTime="02:00:00">
		<link refId="9"/>
		<freespeed type="absolute" value="7.500018750046875"/>
	</networkChangeEvent>

	<networkChangeEvent startTime="03:00:00">
		<link refId="9"/>
		<freespeed type="absolute" value="7.500018750046875"/>
	</networkChangeEvent>

	<networkChangeEvent startTime="04:00:00">
		<link refId="9"/>
		<freespeed type="absolute" value="7.500018750046875"/>
	</networkChangeEvent>

	<networkChangeEvent startTime="05:00:00">
		<link refId="9"/>
		<freespeed type="absolute" value="7.500018750046875"/>
	</networkChangeEvent>

	<networkChangeEvent startTime="06:00:00">
		<link refId="9"/>
		<freespeed type="absolute" value="7.500018750046875"/>
	</networkChangeEvent>

	<networkChangeEvent startTime="07:00:00">
		<link refId="9"/>
		<freespeed type="absolute" value="7.500018750046875"/>
	</networkChangeEvent>

	<networkChangeEvent startTime="08:00:00">
		<link refId="9"/>
		<freespeed type="absolute" value="0.30864197530864196"/>
	</networkChangeEvent>

	<networkChangeEvent startTime="09:00:00">
		<link refId="9"/>
		<freespeed type="absolute" value="0.2786724712284607"/>
	</networkChangeEvent>

	<networkChangeEvent startTime="10:00:00">
		<link refId="9"/>
		<freespeed type="absolute" value="0.33565269344503856"/>
	</networkChangeEvent>

	<networkChangeEvent startTime="11:00:00">
		<link refId="9"/>
		<freespeed type="absolute" value="0.4740237362645697"/>
	</networkChangeEvent>

	<networkChangeEvent startTime="12:00:00">
		<link refId="9"/>
		<freespeed type="absolute" value="5.119462661199081"/>
	</networkChangeEvent>

	<networkChangeEvent startTime="13:00:00">
		<link refId="9"/>
		<freespeed type="absolute" value="7.462686567164179"/>
	</networkChangeEvent>

	<networkChangeEvent startTime="14:00:00">
		<link refId="9"/>
		<freespeed type="absolute" value="7.462686567164179"/>
	</networkChangeEvent>

	<networkChangeEvent startTime="15:00:00">
		<link refId="9"/>
		<freespeed type="absolute" value="7.500018750046875"/>
	</networkChangeEvent>

	<networkChangeEvent startTime="16:00:00">
		<link refId="9"/>
		<freespeed type="absolute" value="0.30864197530864196"/>
	</networkChangeEvent>

	<networkChangeEvent startTime="17:00:00">
		<link refId="9"/>
		<freespeed type="absolute" value="7.500018750046875"/>
	</networkChangeEvent>

	<networkChangeEvent startTime="18:00:00">
		<link refId="9"/>
		<freespeed type="absolute" value="7.500018750046875"/>
	</networkChangeEvent>

	<networkChangeEvent startTime="19:00:00">
		<link refId="9"/>
		<freespeed type="absolute" value="7.500018750046875"/>
	</networkChangeEvent>

	<networkChangeEvent startTime="20:00:00">
		<link refId="9"/>
		<freespeed type="absolute" value="2.571315433549495"/>
	</networkChangeEvent>

	<networkChangeEvent startTime="21:00:00">
		<link refId="9"/>
		<freespeed type="absolute" value="7.462686567164179"/>
	</networkChangeEvent>

	<networkChangeEvent startTime="22:00:00">
		<link refId="9"/>
		<freespeed type="absolute" value="2.7855230794514747"/>
	</networkChangeEvent>

	<networkChangeEvent startTime="23:00:00">
		<link refId="9"/>
		<freespeed type="absolute" value="7.462686567164179"/>
	</networkChangeEvent>

	<networkChangeEvent startTime="00:00:00">
		<link refId="10"/>
		<freespeed type="absolute" value="7.500018750046875"/>
	</networkChangeEvent>

	<networkChangeEvent startTime="01:00:00">
		<link refId="10"/>
		<freespeed type="absolute" value="7.500018750046875"/>
	</networkChangeEvent>

	<networkChangeEvent startTime="02:00:00">
		<link refId="10"/>
		<freespeed type="absolute" value="7.500018750046875"/>
	</networkChangeEvent>

	<networkChangeEvent startTime="03:00:00">
		<link refId="10"/>
		<freespeed type="absolute" value="7.500018750046875"/>
	</networkChangeEvent>

	<networkChangeEvent startTime="04:00:00">
		<link refId="10"/>
		<freespeed type="absolute" value="7.500018750046875"/>
	</networkChangeEvent>

	<networkChangeEvent startTime="05:00:00">
		<link refId="10"/>
		<freespeed type="absolute" value="7.500018750046875"/>
	</networkChangeEvent>

	<networkChangeEvent startTime="06:00:00">
		<link refId="10"/>
		<freespeed type="absolute" value="7.500018750046875"/>
	</networkChangeEvent>

	<networkChangeEvent startTime="07:00:00">
		<link refId="10"/>
		<freespeed type="absolute" value="7.500018750046875"/>
	</networkChangeEvent>

	<networkChangeEvent startTime="08:00:00">
		<link refId="10"/>
		<freespeed type="absolute" value="7.462686567164179"/>
	</networkChangeEvent>

	<networkChangeEvent startTime="09:00:00">
		<link refId="10"/>
		<freespeed type="absolute" value="7.462686567164179"/>
	</networkChangeEvent>

	<networkChangeEvent startTime="10:00:00">
		<link refId="10"/>
		<freespeed type="absolute" value="7.500018750046875"/>
	</networkChangeEvent>

	<networkChangeEvent startTime="11:00:00">
		<link refId="10"/>
		<freespeed type="absolute" value="7.500018750046875"/>
	</networkChangeEvent>

	<networkChangeEvent startTime="12:00:00">
		<link refId="10"/>
		<freespeed type="absolute" value="7.500018750046875"/>
	</networkChangeEvent>

	<networkChangeEvent startTime="13:00:00">
		<link refId="10"/>
		<freespeed type="absolute" value="7.500018750046875"/>