<?xml version="1.0" encoding="UTF-8"?>
<!DOCTYPE network SYSTEM "http://www.matsim.org/files/dtd/network_v2.dtd">
<network name="Network_Test1">

	<attributes>
		<attribute name="coordinateReferenceSystem" class="java.lang.String">EPSG:25832</attribute>
	</attributes>
<!-- ====================================================================== -->

	<nodes>
		<node id="1" x="0.0" y="0.0" >
		</node>
		<node id="10" x="0.0" y="9000.0" >
		</node>
		<node id="100" x="9000.0" y="9000.0" >
		</node>
		<node id="11" x="1000.0" y="0.0" >
		</node>
		<node id="12" x="1000.0" y="1000.0" >
		</node>
		<node id="13" x="1000.0" y="2000.0" >
		</node>
		<node id="14" x="1000.0" y="3000.0" >
		</node>
		<node id="15" x="1000.0" y="4000.0" >
		</node>
		<node id="16" x="1000.0" y="5000.0" >
		</node>
		<node id="17" x="1000.0" y="6000.0" >
		</node>
		<node id="18" x="1000.0" y="7000.0" >
		</node>
		<node id="19" x="1000.0" y="8000.0" >
		</node>
		<node id="2" x="0.0" y="1000.0" >
		</node>
		<node id="20" x="1000.0" y="9000.0" >
		</node>
		<node id="21" x="2000.0" y="0.0" >
		</node>
		<node id="22" x="2000.0" y="1000.0" >
		</node>
		<node id="23" x="2000.0" y="2000.0" >
		</node>
		<node id="24" x="2000.0" y="3000.0" >
		</node>
		<node id="25" x="2000.0" y="4000.0" >
		</node>
		<node id="26" x="2000.0" y="5000.0" >
		</node>
		<node id="27" x="2000.0" y="6000.0" >
		</node>
		<node id="28" x="2000.0" y="7000.0" >
		</node>
		<node id="29" x="2000.0" y="8000.0" >
		</node>
		<node id="3" x="0.0" y="2000.0" >
		</node>
		<node id="30" x="2000.0" y="9000.0" >
		</node>
		<node id="31" x="3000.0" y="0.0" >
		</node>
		<node id="32" x="3000.0" y="1000.0" >
		</node>
		<node id="33" x="3000.0" y="2000.0" >
		</node>
		<node id="34" x="3000.0" y="3000.0" >
		</node>
		<node id="35" x="3000.0" y="4000.0" >
		</node>
		<node id="36" x="3000.0" y="5000.0" >
		</node>
		<node id="37" x="3000.0" y="6000.0" >
		</node>
		<node id="38" x="3000.0" y="7000.0" >
		</node>
		<node id="39" x="3000.0" y="8000.0" >
		</node>
		<node id="4" x="0.0" y="3000.0" >
		</node>
		<node id="40" x="3000.0" y="9000.0" >
		</node>
		<node id="41" x="4000.0" y="0.0" >
		</node>
		<node id="42" x="4000.0" y="1000.0" >
		</node>
		<node id="43" x="4000.0" y="2000.0" >
		</node>
		<node id="44" x="4000.0" y="3000.0" >
		</node>
		<node id="45" x="4000.0" y="4000.0" >
		</node>
		<node id="46" x="4000.0" y="5000.0" >
		</node>
		<node id="47" x="4000.0" y="6000.0" >
		</node>
		<node id="48" x="4000.0" y="7000.0" >
		</node>
		<node id="49" x="4000.0" y="8000.0" >
		</node>
		<node id="5" x="0.0" y="4000.0" >
		</node>
		<node id="50" x="4000.0" y="9000.0" >
		</node>
		<node id="51" x="5000.0" y="0.0" >
		</node>
		<node id="52" x="5000.0" y="1000.0" >
		</node>
		<node id="53" x="5000.0" y="2000.0" >
		</node>
		<node id="54" x="5000.0" y="3000.0" >
		</node>
		<node id="55" x="5000.0" y="4000.0" >
		</node>
		<node id="56" x="5000.0" y="5000.0" >
		</node>
		<node id="57" x="5000.0" y="6000.0" >
		</node>
		<node id="58" x="5000.0" y="7000.0" >
		</node>
		<node id="59" x="5000.0" y="8000.0" >
		</node>
		<node id="6" x="0.0" y="5000.0" >
		</node>
		<node id="60" x="5000.0" y="9000.0" >
		</node>
		<node id="61" x="6000.0" y="0.0" >
		</node>
		<node id="62" x="6000.0" y="1000.0" >
		</node>
		<node id="63" x="6000.0" y="2000.0" >
		</node>
		<node id="64" x="6000.0" y="3000.0" >
		</node>
		<node id="65" x="6000.0" y="4000.0" >
		</node>
		<node id="66" x="6000.0" y="5000.0" >
		</node>
		<node id="67" x="6000.0" y="6000.0" >
		</node>
		<node id="68" x="6000.0" y="7000.0" >
		</node>
		<node id="69" x="6000.0" y="8000.0" >
		</node>
		<node id="7" x="0.0" y="6000.0" >
		</node>
		<node id="70" x="6000.0" y="9000.0" >
		</node>
		<node id="71" x="7000.0" y="0.0" >
		</node>
		<node id="72" x="7000.0" y="1000.0" >
		</node>
		<node id="73" x="7000.0" y="2000.0" >
		</node>
		<node id="74" x="7000.0" y="3000.0" >
		</node>
		<node id="75" x="7000.0" y="4000.0" >
		</node>
		<node id="76" x="7000.0" y="5000.0" >
		</node>
		<node id="77" x="7000.0" y="6000.0" >
		</node>
		<node id="78" x="7000.0" y="7000.0" >
		</node>
		<node id="79" x="7000.0" y="8000.0" >
		</node>
		<node id="8" x="0.0" y="7000.0" >
		</node>
		<node id="80" x="7000.0" y="9000.0" >
		</node>
		<node id="81" x="8000.0" y="0.0" >
		</node>
		<node id="82" x="8000.0" y="1000.0" >
		</node>
		<node id="83" x="8000.0" y="2000.0" >
		</node>
		<node id="84" x="8000.0" y="3000.0" >
		</node>
		<node id="85" x="8000.0" y="4000.0" >
		</node>
		<node id="86" x="8000.0" y="5000.0" >
		</node>
		<node id="87" x="8000.0" y="6000.0" >
		</node>
		<node id="88" x="8000.0" y="7000.0" >
		</node>
		<node id="89" x="8000.0" y="8000.0" >
		</node>
		<node id="9" x="0.0" y="8000.0" >
		</node>
		<node id="90" x="8000.0" y="9000.0" >
		</node>
		<node id="91" x="9000.0" y="0.0" >
		</node>
		<node id="92" x="9000.0" y="1000.0" >
		</node>
		<node id="93" x="9000.0" y="2000.0" >
		</node>
		<node id="94" x="9000.0" y="3000.0" >
		</node>
		<node id="95" x="9000.0" y="4000.0" >
		</node>
		<node id="96" x="9000.0" y="5000.0" >
		</node>
		<node id="97" x="9000.0" y="6000.0" >
		</node>
		<node id="98" x="9000.0" y="7000.0" >
		</node>
		<node id="99" x="9000.0" y="8000.0" >
		</node>
	</nodes>

<!-- ====================================================================== -->

	<links capperiod="01:00:00" effectivecellsize="7.5" effectivelanewidth="3.75">
		<link id="1" from="1" to="11" length="1000.0" freespeed="7.5" capacity="10.0" permlanes="1.0" oneway="1" modes="car" >
			<attributes>
				<attribute name="origid" class="java.lang.String">1</attribute>
				<attribute name="type" class="java.lang.String">1</attribute>
			</attributes>
		</link>
		<link id="10" from="3" to="13" length="1000.0" freespeed="7.5" capacity="1.7976931348623157E308" permlanes="1.0" oneway="1" modes="car" >
			<attributes>
				<attribute name="origid" class="java.lang.String">10</attribute>
				<attribute name="type" class="java.lang.String">1</attribute>
			</attributes>
		</link>
		<link id="100" from="22" to="21" length="1000.0" freespeed="7.5" capacity="1.7976931348623157E308" permlanes="1.0" oneway="1" modes="car" >
			<attributes>
				<attribute name="origid" class="java.lang.String">100</attribute>
				<attribute name="type" class="java.lang.String">1</attribute>
			</attributes>
		</link>
		<link id="101" from="23" to="22" length="1000.0" freespeed="7.5" capacity="1.7976931348623157E308" permlanes="1.0" oneway="1" modes="car" >
			<attributes>
				<attribute name="origid" class="java.lang.String">101</attribute>
				<attribute name="type" class="java.lang.String">1</attribute>
			</attributes>
		</link>
		<link id="102" from="24" to="23" length="1000.0" freespeed="7.5" capacity="1.7976931348623157E308" permlanes="1.0" oneway="1" modes="car" >
			<attributes>
				<attribute name="origid" class="java.lang.String">102</attribute>
				<attribute name="type" class="java.lang.String">1</attribute>
			</attributes>
		</link>
		<link id="103" from="25" to="24" length="1000.0" freespeed="7.5" capacity="1.7976931348623157E308" permlanes="1.0" oneway="1" modes="car" >
			<attributes>
				<attribute name="origid" class="java.lang.String">103</attribute>
				<attribute name="type" class="java.lang.String">1</attribute>
			</attributes>
		</link>
		<link id="104" from="26" to="25" length="1000.0" freespeed="7.5" capacity="1.7976931348623157E308" permlanes="1.0" oneway="1" modes="car" >
			<attributes>
				<attribute name="origid" class="java.lang.String">104</attribute>
				<attribute name="type" class="java.lang.String">1</attribute>
			</attributes>
		</link>
		<link id="105" from="27" to="26" length="1000.0" freespeed="7.5" capacity="1.7976931348623157E308" permlanes="1.0" oneway="1" modes="car" >
			<attributes>
				<attribute name="origid" class="java.lang.String">105</attribute>
				<attribute name="type" class="java.lang.String">1</attribute>
			</attributes>
		</link>
		<link id="106" from="28" to="27" length="1000.0" freespeed="7.5" capacity="1.7976931348623157E308" permlanes="1.0" oneway="1" modes="car" >
			<attributes>
				<attribute name="origid" class="java.lang.String">106</attribute>
				<attribute name="type" class="java.lang.String">1</attribute>
			</attributes>
		</link>
		<link id="107" from="29" to="28" length="1000.0" freespeed="7.5" capacity="1.7976931348623157E308" permlanes="1.0" oneway="1" modes="car" >
			<attributes>
				<attribute name="origid" class="java.lang.String">107</attribute>
				<attribute name="type" class="java.lang.String">1</attribute>
			</attributes>
		</link>
		<link id="108" from="30" to="29" length="1000.0" freespeed="7.5" capacity="1.7976931348623157E308" permlanes="1.0" oneway="1" modes="car" >
			<attributes>
				<attribute name="origid" class="java.lang.String">108</attribute>
				<attribute name="type" class="java.lang.String">1</attribute>
			</attributes>
		</link>
		<link id="109" from="42" to="41" length="1000.0" freespeed="7.5" capacity="1.7976931348623157E308" permlanes="1.0" oneway="1" modes="car" >
			<attributes>
				<attribute name="origid" class="java.lang.String">109</attribute>
				<attribute name="type" class="java.lang.String">1</attribute>
			</attributes>
		</link>
		<link id="11" from="13" to="23" length="1000.0" freespeed="7.5" capacity="1.7976931348623157E308" permlanes="1.0" oneway="1" modes="car" >
			<attributes>
				<attribute name="origid" class="java.lang.String">11</attribute>
				<attribute name="type" class="java.lang.String">1</attribute>
			</attributes>
		</link>
		<link id="110" from="43" to="42" length="1000.0" freespeed="7.5" capacity="1.7976931348623157E308" permlanes="1.0" oneway="1" modes="car" >
			<attributes>
				<attribute name="origid" class="java.lang.String">110</attribute>
				<attribute name="type" class="java.lang.String">1</attribute>
			</attributes>
		</link>
		<link id="111" from="44" to="43" length="1000.0" freespeed="7.5" capacity="1.7976931348623157E308" permlanes="1.0" oneway="1" modes="car" >
			<attributes>
				<attribute name="origid" class="java.lang.String">111</attribute>
				<attribute name="type" class="java.lang.String">1</attribute>
			</attributes>
		</link>
		<link id="112" from="45" to="44" length="1000.0" freespeed="7.5" capacity="1.7976931348623157E308" permlanes="1.0" oneway="1" modes="car" >
			<attributes>
				<attribute name="origid" class="java.lang.String">112</attribute>
				<attribute name="type" class="java.lang.String">1</attribute>
			</attributes>
		</link>
		<link id="113" from="46" to="45" length="1000.0" freespeed="7.5" capacity="1.7976931348623157E308" permlanes="1.0" oneway="1" modes="car" >
			<attributes>
				<attribute name="origid" class="java.lang.String">113</attribute>
				<attribute name="type" class="java.lang.String">1</attribute>
			</attributes>
		</link>
		<link id="114" from="47" to="46" length="1000.0" freespeed="7.5" capacity="1.7976931348623157E308" permlanes="1.0" oneway="1" modes="car" >
			<attributes>
				<attribute name="origid" class="java.lang.String">114</attribute>
				<attribute name="type" class="java.lang.String">1</attribute>
			</attributes>
		</link>
		<link id="115" from="48" to="47" length="1000.0" freespeed="7.5" capacity="1.7976931348623157E308" permlanes="1.0" oneway="1" modes="car" >
			<attributes>
				<attribute name="origid" class="java.lang.String">115</attribute>
				<attribute name="type" class="java.lang.String">1</attribute>
			</attributes>
		</link>
		<link id="116" from="49" to="48" length="1000.0" freespeed="7.5" capacity="1.7976931348623157E308" permlanes="1.0" oneway="1" modes="car" >
			<attributes>
				<attribute name="origid" class="java.lang.String">116</attribute>
				<attribute name="type" class="java.lang.String">1</attribute>
			</attributes>
		</link>
		<link id="117" from="50" to="49" length="1000.0" freespeed="7.5" capacity="1.7976931348623157E308" permlanes="1.0" oneway="1" modes="car" >
			<attributes>
				<attribute name="origid" class="java.lang.String">117</attribute>
				<attribute name="type" class="java.lang.String">1</attribute>
			</attributes>
		</link>
		<link id="118" from="62" to="61" length="1000.0" freespeed="7.5" capacity="1.7976931348623157E308" permlanes="1.0" oneway="1" modes="car" >
			<attributes>
				<attribute name="origid" class="java.lang.String">118</attribute>
				<attribute name="type" class="java.lang.String">1</attribute>
			</attributes>
		</link>
		<link id="119" from="63" to="62" length="1000.0" freespeed="7.5" capacity="1.7976931348623157E308" permlanes="1.0" oneway="1" modes="car" >
			<attributes>
				<attribute name="origid" class="java.lang.String">119</attribute>
				<attribute name="type" class="java.lang.String">1</attribute>
			</attributes>
		</link>
		<link id="12" from="23" to="33" length="1000.0" freespeed="7.5" capacity="1.7976931348623157E308" permlanes="1.0" oneway="1" modes="car" >
			<attributes>
				<attribute name="origid" class="java.lang.String">12</attribute>
				<attribute name="type" class="java.lang.String">1</attribute>
			</attributes>
		</link>
		<link id="120" from="64" to="63" length="1000.0" freespeed="7.5" capacity="1.7976931348623157E308" permlanes="1.0" oneway="1" modes="car" >
			<attributes>
				<attribute name="origid" class="java.lang.String">120</attribute>
				<attribute name="type" class="java.lang.String">1</attribute>
			</attributes>
		</link>
		<link id="121" from="65" to="64" length="1000.0" freespeed="7.5" capacity="1.7976931348623157E308" permlanes="1.0" oneway="1" modes="car" >
			<attributes>
				<attribute name="origid" class="java.lang.String">121</attribute>
				<attribute name="type" class="java.lang.String">1</attribute>
			</attributes>
		</link>
		<link id="122" from="66" to="65" length="1000.0" freespeed="7.5" capacity="1.7976931348623157E308" permlanes="1.0" oneway="1" modes="car" >
			<attributes>
				<attribute name="origid" class="java.lang.String">122</attribute>
				<attribute name="type" class="java.lang.String">1</attribute>
			</attributes>
		</link>
		<link id="123" from="67" to="66" length="1000.0" freespeed="7.5" capacity="1.7976931348623157E308" permlanes="1.0" oneway="1" modes="car" >
			<attributes>
				<attribute name="origid" class="java.lang.String">123</attribute>
				<attribute name="type" class="java.lang.String">1</attribute>
			</attributes>
		</link>
		<link id="124" from="68" to="67" length="1000.0" freespeed="7.5" capacity="1.7976931348623157E308" permlanes="1.0" oneway="1" modes="car" >
			<attributes>
				<attribute name="origid" class="java.lang.String">124</attribute>
				<attribute name="type" class="java.lang.String">1</attribute>
			</attributes>
		</link>
		<link id="125" from="69" to="68" length="1000.0" freespeed="7.5" capacity="1.7976931348623157E308" permlanes="1.0" oneway="1" modes="car" >
			<attributes>
				<attribute name="origid" class="java.lang.String">125</attribute>
				<attribute name="type" class="java.lang.String">1</attribute>
			</attributes>
		</link>
		<link id="126" from="70" to="69" length="1000.0" freespeed="7.5" capacity="1.7976931348623157E308" permlanes="1.0" oneway="1" modes="car" >
			<attributes>
				<attribute name="origid" class="java.lang.String">126</attribute>
				<attribute name="type" class="java.lang.String">1</attribute>
			</attributes>
		</link>
		<link id="128" from="83" to="82" length="1000.0" freespeed="7.5" capacity="1.7976931348623157E308" permlanes="1.0" oneway="1" modes="car" >
			<attributes>
				<attribute name="origid" class="java.lang.String">128</attribute>
				<attribute name="type" class="java.lang.String">1</attribute>
			</attributes>
		</link>
		<link id="129" from="84" to="83" length="1000.0" freespeed="7.5" capacity="1.7976931348623157E308" permlanes="1.0" oneway="1" modes="car" >
			<attributes>
				<attribute name="origid" class="java.lang.String">129</attribute>
				<attribute name="type" class="java.lang.String">1</attribute>
			</attributes>
		</link>
		<link id="13" from="33" to="43" length="1000.0" freespeed="7.5" capacity="1.7976931348623157E308" permlanes="1.0" oneway="1" modes="car" >
			<attributes>
				<attribute name="origid" class="java.lang.String">13</attribute>
				<attribute name="type" class="java.lang.String">1</attribute>
			</attributes>
		</link>
		<link id="130" from="85" to="84" length="1000.0" freespeed="7.5" capacity="1.7976931348623157E308" permlanes="1.0" oneway="1" modes="car" >
			<attributes>
				<attribute name="origid" class="java.lang.String">130</attribute>
				<attribute name="type" class="java.lang.String">1</attribute>
			</attributes>
		</link>
		<link id="131" from="86" to="85" length="1000.0" freespeed="7.5" capacity="1.7976931348623157E308" permlanes="1.0" oneway="1" modes="car" >
			<attributes>
				<attribute name="origid" class="java.lang.String">131</attribute>
				<attribute name="type" class="java.lang.String">1</attribute>
			</attributes>
		</link>
		<link id="132" from="87" to="86" length="1000.0" freespeed="7.5" capacity="1.7976931348623157E308" permlanes="1.0" oneway="1" modes="car" >
			<attributes>
				<attribute name="origid" class="java.lang.String">132</attribute>
				<attribute name="type" class="java.lang.String">1</attribute>
			</attributes>
		</link>
		<link id="133" from="88" to="87" length="1000.0" freespeed="7.5" capacity="1.7976931348623157E308" permlanes="1.0" oneway="1" modes="car" >
			<attributes>
				<attribute name="origid" class="java.lang.String">133</attribute>
				<attribute name="type" class="java.lang.String">1</attribute>
			</attributes>
		</link>
		<link id="134" from="89" to="88" length="1000.0" freespeed="7.5" capacity="1.7976931348623157E308" permlanes="1.0" oneway="1" modes="car" >
			<attributes>
				<attribute name="origid" class="java.lang.String">134</attribute>
				<attribute name="type" class="java.lang.String">1</attribute>
			</attributes>
		</link>
		<link id="135" from="90" to="89" length="1000.0" freespeed="7.5" capacity="1.7976931348623157E308" permlanes="1.0" oneway="1" modes="car" >
			<attributes>
				<attribute name="origid" class="java.lang.String">135</attribute>
				<attribute name="type" class="java.lang.String">1</attribute>
			</attributes>
		</link>
		<link id="136" from="11" to="12" length="1000.0" freespeed="7.5" capacity="10.0" permlanes="1.0" oneway="1" modes="car" >
			<attributes>
				<attribute name="origid" class="java.lang.String">136</attribute>
				<attribute name="type" class="java.lang.String">1</attribute>
			</attributes>
		</link>
		<link id="137" from="12" to="13" length="1000.0" freespeed="7.5" capacity="1.7976931348623157E308" permlanes="1.0" oneway="1" modes="car" >
			<attributes>
				<attribute name="origid" class="java.lang.String">137</attribute>
				<attribute name="type" class="java.lang.String">1</attribute>
			</attributes>
		</link>
		<link id="138" from="13" to="14" length="1000.0" freespeed="7.5" capacity="1.7976931348623157E308" permlanes="1.0" oneway="1" modes="car" >
			<attributes>
				<attribute name="origid" class="java.lang.String">138</attribute>
				<attribute name="type" class="java.lang.String">1</attribute>
			</attributes>
		</link>
		<link id="139" from="14" to="15" length="1000.0" freespeed="7.5" capacity="1.7976931348623157E308" permlanes="1.0" oneway="1" modes="car" >
			<attributes>
				<attribute name="origid" class="java.lang.String">139</attribute>
				<attribute name="type" class="java.lang.String">1</attribute>
			</attributes>
		</link>
		<link id="14" from="43" to="53" length="1000.0" freespeed="7.5" capacity="1.7976931348623157E308" permlanes="1.0" oneway="1" modes="car" >
			<attributes>
				<attribute name="origid" class="java.lang.String">14</attribute>
				<attribute name="type" class="java.lang.String">1</attribute>
			</attributes>
		</link>
		<link id="140" from="15" to="16" length="1000.0" freespeed="7.5" capacity="1.7976931348623157E308" permlanes="1.0" oneway="1" modes="car" >
			<attributes>
				<attribute name="origid" class="java.lang.String">140</attribute>
				<attribute name="type" class="java.lang.String">1</attribute>
			</attributes>
		</link>
		<link id="141" from="16" to="17" length="1000.0" freespeed="7.5" capacity="1.7976931348623157E308" permlanes="1.0" oneway="1" modes="car" >
			<attributes>
				<attribute name="origid" class="java.lang.String">141</attribute>
				<attribute name="type" class="java.lang.String">1</attribute>
			</attributes>
		</link>
		<link id="142" from="17" to="18" length="1000.0" freespeed="7.5" capacity="1.7976931348623157E308" permlanes="1.0" oneway="1" modes="car" >
			<attributes>
				<attribute name="origid" class="java.lang.String">142</attribute>
				<attribute name="type" class="java.lang.String">1</attribute>
			</attributes>
		</link>
		<link id="143" from="18" to="19" length="1000.0" freespeed="7.5" capacity="1.7976931348623157E308" permlanes="1.0" oneway="1" modes="car" >
			<attributes>
				<attribute name="origid" class="java.lang.String">143</attribute>
				<attribute name="type" class="java.lang.String">1</attribute>
			</attributes>
		</link>
		<link id="144" from="19" to="20" length="1000.0" freespeed="7.5" capacity="1.7976931348623157E308" permlanes="1.0" oneway="1" modes="car" >
			<attributes>
				<attribute name="origid" class="java.lang.String">144</attribute>
				<attribute name="type" class="java.lang.String">1</attribute>
			</attributes>
		</link>
		<link id="145" from="31" to="32" length="1000.0" freespeed="7.5" capacity="1.7976931348623157E308" permlanes="1.0" oneway="1" modes="car" >
			<attributes>
				<attribute name="origid" class="java.lang.String">145</attribute>
				<attribute name="type" class="java.lang.String">1</attribute>
			</attributes>
		</link>
		<link id="146" from="32" to="33" length="1000.0" freespeed="7.5" capacity="1.7976931348623157E308" permlanes="1.0" oneway="1" modes="car" >
			<attributes>
				<attribute name="origid" class="java.lang.String">146</attribute>
				<attribute name="type" class="java.lang.String">1</attribute>
			</attributes>
		</link>
		<link id="147" from="33" to="34" length="1000.0" freespeed="7.5" capacity="1.7976931348623157E308" permlanes="1.0" oneway="1" modes="car" >
			<attributes>
				<attribute name="origid" class="java.lang.String">147</attribute>
				<attribute name="type" class="java.lang.String">1</attribute>
			</attributes>
		</link>
		<link id="148" from="34" to="35" length="1000.0" freespeed="7.5" capacity="1.7976931348623157E308" permlanes="1.0" oneway="1" modes="car" >
			<attributes>
				<attribute name="origid" class="java.lang.String">148</attribute>
				<attribute name="type" class="java.lang.String">1</attribute>
			</attributes>
		</link>
		<link id="149" from="35" to="36" length="1000.0" freespeed="7.5" capacity="1.7976931348623157E308" permlanes="1.0" oneway="1" modes="car" >
			<attributes>
				<attribute name="origid" class="java.lang.String">149</attribute>
				<attribute name="type" class="java.lang.String">1</attribute>
			</attributes>
		</link>
		<link id="15" from="53" to="63" length="1000.0" freespeed="7.5" capacity="1.7976931348623157E308" permlanes="1.0" oneway="1" modes="car" >
			<attributes>
				<attribute name="origid" class="java.lang.String">15</attribute>
				<attribute name="type" class="java.lang.String">1</attribute>
			</attributes>
		</link>
		<link id="150" from="36" to="37" length="1000.0" freespeed="7.5" capacity="1.7976931348623157E308" permlanes="1.0" oneway="1" modes="car" >
			<attributes>
				<attribute name="origid" class="java.lang.String">150</attribute>
				<attribute name="type" class="java.lang.String">1</attribute>
			</attributes>
		</link>
		<link id="151" from="37" to="38" length="1000.0" freespeed="7.5" capacity="1.7976931348623157E308" permlanes="1.0" oneway="1" modes="car" >
			<attributes>
				<attribute name="origid" class="java.lang.String">151</attribute>
				<attribute name="type" class="java.lang.String">1</attribute>
			</attributes>
		</link>
		<link id="152" from="38" to="39" length="1000.0" freespeed="7.5" capacity="1.7976931348623157E308" permlanes="1.0" oneway="1" modes="car" >
			<attributes>
				<attribute name="origid" class="java.lang.String">152</attribute>
				<attribute name="type" class="java.lang.String">1</attribute>
			</attributes>
		</link>
		<link id="153" from="39" to="40" length="1000.0" freespeed="7.5" capacity="1.7976931348623157E308" permlanes="1.0" oneway="1" modes="car" >
			<attributes>
				<attribute name="origid" class="java.lang.String">153</attribute>
				<attribute name="type" class="java.lang.String">1</attribute>
			</attributes>
		</link>
		<link id="154" from="51" to="52" length="1000.0" freespeed="7.5" capacity="1.7976931348623157E308" permlanes="1.0" oneway="1" modes="car" >
			<attributes>
				<attribute name="origid" class="java.lang.String">154</attribute>
				<attribute name="type" class="java.lang.String">1</attribute>
			</attributes>
		</link>
		<link id="155" from="52" to="53" length="1000.0" freespeed="7.5" capacity="1.7976931348623157E308" permlanes="1.0" oneway="1" modes="car" >
			<attributes>
				<attribute name="origid" class="java.lang.String">155</attribute>
				<attribute name="type" class="java.lang.String">1</attribute>
			</attributes>
		</link>
		<link id="156" from="53" to="54" length="1000.0" freespeed="7.5" capacity="1.7976931348623157E308" permlanes="1.0" oneway="1" modes="car" >
			<attributes>
				<attribute name="origid" class="java.lang.String">156</attribute>
				<attribute name="type" class="java.lang.String">1</attribute>
			</attributes>
		</link>
		<link id="157" from="54" to="55" length="1000.0" freespeed="7.5" capacity="1.7976931348623157E308" permlanes="1.0" oneway="1" modes="car" >
			<attributes>
				<attribute name="origid" class="java.lang.String">157</attribute>
				<attribute name="type" class="java.lang.String">1</attribute>
			</attributes>
		</link>
		<link id="158" from="55" to="56" length="1000.0" freespeed="7.5" capacity="1.7976931348623157E308" permlanes="1.0" oneway="1" modes="car" >
			<attributes>
				<attribute name="origid" class="java.lang.String">158</attribute>
				<attribute name="type" class="java.lang.String">1</attribute>
			</attributes>
		</link>
		<link id="159" from="56" to="57" length="1000.0" freespeed="7.5" capacity="1.7976931348623157E308" permlanes="1.0" oneway="1" modes="car" >
			<attributes>
				<attribute name="origid" class="java.lang.String">159</attribute>
				<attribute name="type" class="java.lang.String">1</attribute>
			</attributes>
		</link>
		<link id="16" from="63" to="73" length="1000.0" freespeed="7.5" capacity="1.7976931348623157E308" permlanes="1.0" oneway="1" modes="car" >
			<attributes>
				<attribute name="origid" class="java.lang.String">16</attribute>
				<attribute name="type" class="java.lang.String">1</attribute>
			</attributes>
		</link>
		<link id="160" from="57" to="58" length="1000.0" freespeed="7.5" capacity="1.7976931348623157E308" permlanes="1.0" oneway="1" modes="car" >
			<attributes>
				<attribute name="origid" class="java.lang.String">160</attribute>
				<attribute name="type" class="java.lang.String">1</attribute>
			</attributes>
		</link>
		<link id="161" from="58" to="59" length="1000.0" freespeed="7.5" capacity="1.7976931348623157E308" permlanes="1.0" oneway="1" modes="car" >
			<attributes>
				<attribute name="origid" class="java.lang.String">161</attribute>
				<attribute name="type" class="java.lang.String">1</attribute>
			</attributes>
		</link>
		<link id="162" from="59" to="60" length="1000.0" freespeed="7.5" capacity="1.7976931348623157E308" permlanes="1.0" oneway="1" modes="car" >
			<attributes>
				<attribute name="origid" class="java.lang.String">162</attribute>
				<attribute name="type" class="java.lang.String">1</attribute>
			</attributes>
		</link>
		<link id="163" from="71" to="72" length="1000.0" freespeed="7.5" capacity="1.7976931348623157E308" permlanes="1.0" oneway="1" modes="car" >
			<attributes>
				<attribute name="origid" class="java.lang.String">163</attribute>
				<attribute name="type" class="java.lang.String">1</attribute>
			</attributes>
		</link>
		<link id="165" from="73" to="74" length="1000.0" freespeed="7.5" capacity="1.7976931348623157E308" permlanes="1.0" oneway="1" modes="car" >
			<attributes>
				<attribute name="origid" class="java.lang.String">165</attribute>
				<attribute name="type" class="java.lang.String">1</attribute>
			</attributes>
		</link>
		<link id="166" from="74" to="75" length="1000.0" freespeed="7.5" capacity="1.7976931348623157E308" permlanes="1.0" oneway="1" modes="car" >
			<attributes>
				<attribute name="origid" class="java.lang.String">166</attribute>
				<attribute name="type" class="java.lang.String">1</attribute>
			</attributes>
		</link>
		<link id="167" from="75" to="76" length="1000.0" freespeed="7.5" capacity="1.7976931348623157E308" permlanes="1.0" oneway="1" modes="car" >
			<attributes>
				<attribute name="origid" class="java.lang.String">167</attribute>
				<attribute name="type" class="java.lang.String">1</attribute>
			</attributes>
		</link>
		<link id="168" from="76" to="77" length="1000.0" freespeed="7.5" capacity="1.7976931348623157E308" permlanes="1.0" oneway="1" modes="car" >
			<attributes>
				<attribute name="origid" class="java.lang.String">168</attribute>
				<attribute name="type" class="java.lang.String">1</attribute>
			</attributes>
		</link>
		<link id="169" from="77" to="78" length="1000.0" freespeed="7.5" capacity="1.7976931348623157E308" permlanes="1.0" oneway="1" modes="car" >
			<attributes>
				<attribute name="origid" class="java.lang.String">169</attribute>
				<attribute name="type" class="java.lang.String">1</attribute>
			</attributes>
		</link>
		<link id="17" from="73" to="83" length="1000.0" freespeed="7.5" capacity="1.7976931348623157E308" permlanes="1.0" oneway="1" modes="car" >
			<attributes>