<?xml version="1.0" encoding="utf-8"?>
<!DOCTYPE population SYSTEM "http://www.matsim.org/files/dtd/population_v6.dtd">

<population desc="Plans_Test1">

	<attributes>
		<attribute name="coordinateReferenceSystem" class="java.lang.String">EPSG:25832</attribute>
	</attributes>


<!-- ====================================================================== -->

	<person id="1">
		<attributes>
			<attribute name="age" class="java.lang.Integer">30</attribute>
		</attributes>
		<plan selected="yes">
			<activity type="home" link="91" facility="1" x="0.0" y="500.0" start_time="00:00:00" end_time="08:00:00" >
			</activity>
			<leg mode="car" dep_time="08:00:00" trav_time="00:00:00">
			</leg>
			<activity type="work" link="172" facility="10" x="9000.0" y="500.0" start_time="08:00:00" end_time="16:00:00" >
			</activity>
			<leg mode="car" dep_time="16:00:00" trav_time="00:00:00">
			</leg>
			<activity type="shopping" link="5" facility="37" x="4500.0" y="0.0" start_time="16:00:00" end_time="20:00:00" >
			</activity>
			<leg mode="car" dep_time="20:00:00" trav_time="00:00:00">
			</leg>
			<activity type="home" link="91" facility="1" x="0.0" y="500.0" start_time="20:00:00" end_time="24:00:00" >
			</activity>
		</plan>

	</person>

<!-- ====================================================================== -->

	<person id="10">
		<attributes>
			<attribute name="age" class="java.lang.Integer">37</attribute>
		</attributes>
		<plan selected="yes">
			<activity type="home" link="92" facility="2" x="0.0" y="1500.0" start_time="00:00:00" max_dur="08:00:00" end_time="08:00:00" >
			</activity>
			<leg mode="car" dep_time="08:00:00" trav_time="00:00:00">
			</leg>
			<activity type="work" link="172" facility="10" x="9000.0" y="500.0" start_time="08:00:00" max_dur="08:00:00" end_time="16:00:00" >
			</activity>
			<leg mode="car" dep_time="16:00:00" trav_time="00:00:00">
			</leg>
			<activity type="shopping" link="23" facility="39" x="4500.0" y="4000.0" start_time="16:00:00" max_dur="04:00:00" end_time="20:00:00" >
			</activity>
			<leg mode="car" dep_time="20:00:00" trav_time="00:00:00">
			</leg>
			<activity type="home" link="92" facility="2" x="0.0" y="1500.0" start_time="20:00:00" max_dur="04:00:00" end_time="24:00:00" >
			</activity>
		</plan>

	</person>

<!-- ====================================================================== -->

	<person id="100">
		<attributes>
			<attribute name="age" class="java.lang.Integer">56</attribute>
		</attributes>
		<plan selected="yes">
			<activity type="home" link="174" facility="12" x="9000.0" y="2500.0" start_time="00:00:00" max_dur="08:00:00" end_time="08:00:00" >
			</activity>
			<leg mode="car" dep_time="08:00:00" trav_time="00:00:00">
			</leg>
			<activity type="work" link="91" facility="1" x="0.0" y="500.0" start_time="08:00:00" max_dur="08:00:00" end_time="16:00:00" >
			</activity>
			<leg mode="car" dep_time="16:00:00" trav_time="00:00:00">
			</leg>
			<activity type="shopping" link="41" facility="41" x="4500.0" y="8000.0" start_time="16:00:00" max_dur="04:00:00" end_time="20:00:00" >
			</activity>
			<leg mode="car" dep_time="20:00:00" trav_time="00:00:00">
			</leg>
			<activity type="home" link="174" facility="12" x="9000.0" y="2500.0" start_time="20:00:00" max_dur="04:00:00" end_time="24:00:00" >
			</activity>
		</plan>

	</person>

<!-- ====================================================================== -->

	<person id="101">
		<attributes>
			<attribute name="age" class="java.lang.Integer">74</attribute>
		</attributes>
		<plan selected="yes">
			<activity type="home" link="174" facility="12" x="9000.0" y="2500.0" start_time="00:00:00" max_dur="08:00:00" end_time="08:00:00" >
			</activity>
			<leg mode="car" dep_time="08:00:00" trav_time="00:00:00">
			</leg>
			<activity type="work" link="92" facility="2" x="0.0" y="1500.0" start_time="08:00:00" max_dur="08:00:00" end_time="16:00:00" >
			</activity>
			<leg mode="car" dep_time="16:00:00" trav_time="00:00:00">
			</leg>
			<activity type="leisure" link="50" facility="42" x="4500.0" y="1000.0" start_time="16:00:00" max_dur="04:00:00" end_time="20:00:00" >
			</activity>
			<leg mode="car" dep_time="20:00:00" trav_time="00:00:00">
			</leg>
			<activity type="home" link="174" facility="12" x="9000.0" y="2500.0" start_time="20:00:00" max_dur="04:00:00" end_time="24:00:00" >
			</activity>
		</plan>

	</person>

<!-- ====================================================================== -->

	<person id="109">
		<attributes>
			<attribute name="age" class="java.lang.Integer">67</attribute>
		</attributes>
		<plan selected="yes">
			<activity type="home" link="175" facility="13" x="9000.0" y="3500.0" start_time="00:00:00" max_dur="08:00:00" end_time="08:00:00" >
			</activity>
			<leg mode="car" dep_time="08:00:00" trav_time="00:00:00">
			</leg>
			<activity type="work" link="91" facility="1" x="0.0" y="500.0" start_time="08:00:00" max_dur="08:00:00" end_time="16:00:00" >
			</activity>
			<leg mode="car" dep_time="16:00:00" trav_time="00:00:00">
			</leg>
			<activity type="leisure" link="68" facility="44" x="4500.0" y="5000.0" start_time="16:00:00" max_dur="04:00:00" end_time="20:00:00" >
			</activity>
			<leg mode="car" dep_time="20:00:00" trav_time="00:00:00">
			</leg>
			<activity type="home" link="175" facility="13" x="9000.0" y="3500.0" start_time="20:00:00" max_dur="04:00:00" end_time="24:00:00" >
			</activity>
		</plan>

	</person>

<!-- ====================================================================== -->

	<person id="11">
		<attributes>
			<attribute name="age" class="java.lang.Integer">38</attribute>
		</attributes>
		<plan selected="yes">
			<activity type="home" link="92" facility="2" x="0.0" y="1500.0" start_time="00:00:00" max_dur="08:00:00" end_time="08:00:00" >
			</activity>
			<leg mode="car" dep_time="08:00:00" trav_time="00:00:00">
			</leg>
			<activity type="work" link="173" facility="11" x="9000.0" y="1500.0" start_time="08:00:00" max_dur="08:00:00" end_time="16:00:00" >
			</activity>
			<leg mode="car" dep_time="16:00:00" trav_time="00:00:00">
			</leg>
			<activity type="shopping" link="14" facility="38" x="4500.0" y="2000.0" start_time="16:00:00" max_dur="04:00:00" end_time="20:00:00" >
			</activity>
			<leg mode="car" dep_time="20:00:00" trav_time="00:00:00">
			</leg>
			<activity type="home" link="92" facility="2" x="0.0" y="1500.0" start_time="20:00:00" max_dur="04:00:00" end_time="24:00:00" >
			</activity>
		</plan>

	</person>

<!-- ====================================================================== -->

	<person id="110">
		<attributes>
			<attribute name="age" class="java.lang.Integer">63</attribute>
		</attributes>
		<plan selected="yes">
			<activity type="home" link="175" facility="13" x="9000.0" y="3500.0" start_time="00:00:00" max_dur="08:00:00" end_time="08:00:00" >
			</activity>
			<leg mode="car" dep_time="08:00:00" trav_time="00:00:00">
			</leg>
			<activity type="work" link="92" facility="2" x="0.0" y="1500.0" start_time="08:00:00" max_dur="08:00:00" end_time="16:00:00" >
			</activity>
			<leg mode="car" dep_time="16:00:00" trav_time="00:00:00">
			</leg>
			<activity type="leisure" link="59" facility="43" x="4500.0" y="3000.0" start_time="16:00:00" max_dur="04:00:00" end_time="20:00:00" >
			</activity>
			<leg mode="car" dep_time="20:00:00" trav_time="00:00:00">
			</leg>
			<activity type="home" link="175" facility="13" x="9000.0" y="3500.0" start_time="20:00:00" max_dur="04:00:00" end_time="24:00:00" >
			</activity>
		</plan>

	</person>

<!-- ====================================================================== -->

	<person id="118">
		<attributes>
			<attribute name="age" class="java.lang.Integer">9</attribute>
		</attributes>
		<plan selected="yes">
			<activity type="home" link="176" facility="14" x="9000.0" y="4500.0" start_time="00:00:00" max_dur="08:00:00" end_time="08:00:00" >
			</activity>
			<leg mode="car" dep_time="08:00:00" trav_time="00:00:00">
			</leg>
			<activity type="work" link="91" facility="1" x="0.0" y="500.0" start_time="08:00:00" max_dur="08:00:00" end_time="16:00:00" >
			</activity>
			<leg mode="car" dep_time="16:00:00" trav_time="00:00:00">
			</leg>
			<activity type="shopping" link="14" facility="38" x="4500.0" y="2000.0" start_time="16:00:00" max_dur="04:00:00" end_time="20:00:00" >
			</activity>
			<leg mode="car" dep_time="20:00:00" trav_time="00:00:00">
			</leg>
			<activity type="home" link="176" facility="14" x="9000.0" y="4500.0" start_time="20:00:00" max_dur="04:00:00" end_time="24:00:00" >
			</activity>
		</plan>

	</person>

<!-- ====================================================================== -->

	<person id="119">
		<attributes>
			<attribute name="age" class="java.lang.Integer">66</attribute>
		</attributes>
		<plan selected="yes">
			<activity type="home" link="176" facility="14" x="9000.0" y="4500.0" start_time="00:00:00" max_dur="08:00:00" end_time="08:00:00" >
			</activity>
			<leg mode="car" dep_time="08:00:00" trav_time="00:00:00">
			</leg>
			<activity type="work" link="92" facility="2" x="0.0" y="1500.0" start_time="08:00:00" max_dur="08:00:00" end_time="16:00:00" >
			</activity>
			<leg mode="car" dep_time="16:00:00" trav_time="00:00:00">
			</leg>
			<activity type="shopping" link="14" facility="38" x="4500.0" y="2000.0" start_time="16:00:00" max_dur="04:00:00" end_time="20:00:00" >
			</activity>
			<leg mode="car" dep_time="20:00:00" trav_time="00:00:00">
			</leg>
			<activity type="home" link="176" facility="14" x="9000.0" y="4500.0" start_time="20:00:00" max_dur="04:00:00" end_time="24:00:00" >
			</activity>
		</plan>

	</person>

<!-- ====================================================================== -->

	<person id="12">
		<attributes>
			<attribute name="age" class="java.lang.Integer">45</attribute>
		</attributes>
		<plan selected="yes">
			<activity type="home" link="92" facility="2" x="0.0" y="1500.0" start_time="00:00:00" max_dur="08:00:00" end_time="08:00:00" >
			</activity>
			<leg mode="car" dep_time="08:00:00" trav_time="00:00:00">
			</leg>
			<activity type="work" link="174" facility="12" x="9000.0" y="2500.0" start_time="08:00:00" max_dur="08:00:00" end_time="16:00:00" >
			</activity>
			<leg mode="car" dep_time="16:00:00" trav_time="00:00:00">
			</leg>
			<activity type="shopping" link="5" facility="37" x="4500.0" y="0.0" start_time="16:00:00" max_dur="04:00:00" end_time="20:00:00" >
			</activity>
			<leg mode="car" dep_time="20:00:00" trav_time="00:00:00">
			</leg>
			<activity type="home" link="92" facility="2" x="0.0" y="1500.0" start_time="20:00:00" max_dur="04:00:00" end_time="24:00:00" >
			</activity>
		</plan>

	</person>

<!-- ====================================================================== -->

	<person id="127">
		<attributes>
			<attribute name="age" class="java.lang.Integer">76</attribute>
		</attributes>
		<plan selected="yes">
			<activity type="home" link="177" facility="15" x="9000.0" y="5500.0" start_time="00:00:00" max_dur="08:00:00" end_time="08:00:00" >
			</activity>
			<leg mode="car" dep_time="08:00:00" trav_time="00:00:00">
			</leg>
			<activity type="work" link="91" facility="1" x="0.0" y="500.0" start_time="08:00:00" max_dur="08:00:00" end_time="16:00:00" >
			</activity>
			<leg mode="car" dep_time="16:00:00" trav_time="00:00:00">
			</leg>
			<activity type="leisure" link="77" facility="45" x="4500.0" y="7000.0" start_time="16:00:00" max_dur="04:00:00" end_time="20:00:00" >
			</activity>
			<leg mode="car" dep_time="20:00:00" trav_time="00:00:00">
			</leg>
			<activity type="home" link="177" facility="15" x="9000.0" y="5500.0" start_time="20:00:00" max_dur="04:00:00" end_time="24:00:00" >
			</activity>
		</plan>

	</person>

<!-- ====================================================================== -->

	<person id="128">
		<attributes>
			<attribute name="age" class="java.lang.Integer">26</attribute>
		</attributes>
		<plan selected="yes">
			<activity type="home" link="177" facility="15" x="9000.0" y="5500.0" start_time="00:00:00" max_dur="08:00:00" end_time="08:00:00" >
			</activity>
			<leg mode="car" dep_time="08:00:00" trav_time="00:00:00">
			</leg>
			<activity type="work" link="92" facility="2" x="0.0" y="1500.0" start_time="08:00:00" max_dur="08:00:00" end_time="16:00:00" >
			</activity>
			<leg mode="car" dep_time="16:00:00" trav_time="00:00:00">
			</leg>
			<activity type="leisure" link="68" facility="44" x="4500.0" y="5000.0" start_time="16:00:00" max_dur="04:00:00" end_time="20:00:00" >
			</activity>
			<leg mode="car" dep_time="20:00:00" trav_time="00:00:00">
			</leg>
			<activity type="home" link="177" facility="15" x="9000.0" y="5500.0" start_time="20:00:00" max_dur="04:00:00" end_time="24:00:00" >
			</activity>
		</plan>

	</person>

<!-- ====================================================================== -->

	<person id="13">
		<attributes>
			<attribute name="age" class="java.lang.Integer">8</attribute>
		</attributes>
		<plan selected="yes">
			<activity type="home" link="92" facility="2" x="0.0" y="1500.0" start_time="00:00:00" max_dur="08:00:00" end_time="08:00:00" >
			</activity>
			<leg mode="car" dep_time="08:00:00" trav_time="00:00:00">
			</leg>
			<activity type="work" link="175" facility="13" x="9000.0" y="3500.0" start_time="08:00:00" max_dur="08:00:00" end_time="16:00:00" >
			</activity>
			<leg mode="car" dep_time="16:00:00" trav_time="00:00:00">
			</leg>
			<activity type="leisure" link="86" facility="46" x="4500.0" y="9000.0" start_time="16:00:00" max_dur="04:00:00" end_time="20:00:00" >
			</activity>
			<leg mode="car" dep_time="20:00:00" trav_time="00:00:00">
			</leg>
			<activity type="home" link="92" facility="2" x="0.0" y="1500.0" start_time="20:00:00" max_dur="04:00:00" end_time="24:00:00" >
			</activity>
		</plan>

	</person>

<!-- ====================================================================== -->

	<person id="136">
		<attributes>
			<attribute name="age" class="java.lang.Integer">31</attribute>
		</attributes>
		<plan selected="yes">
			<activity type="home" link="178" facility="16" x="9000.0" y="6500.0" start_time="00:00:00" max_dur="08:00:00" end_time="08:00:00" >
			</activity>
			<leg mode="car" dep_time="08:00:00" trav_time="00:00:00">
			</leg>
			<activity type="work" link="91" facility="1" x="0.0" y="500.0" start_time="08:00:00" max_dur="08:00:00" end_time="16:00:00" >
			</activity>
			<leg mode="car" dep_time="16:00:00" trav_time="00:00:00">
			</leg>
			<activity type="shopping" link="32" facility="40" x="4500.0" y="6000.0" start_time="16:00:00" max_dur="04:00:00" end_time="20:00:00" >
			</activity>
			<leg mode="car" dep_time="20:00:00" trav_time="00:00:00">
			</leg>
			<activity type="home" link="178" facility="16" x="9000.0" y="6500.0" start_time="20:00:00" max_dur="04:00:00" end_time="24:00:00" >
			</activity>
		</plan>

	</person>

<!-- ====================================================================== -->

	<person id="137">
		<attributes>
			<attribute name="age" class="java.lang.Integer">27</attribute>
		</attributes>
		<plan selected="yes">
			<activity type="home" link="178" facility="16" x="9000.0" y="6500.0" start_time="00:00:00" max_dur="08:00:00" end_time="08:00:00" >
			</activity>
			<leg mode="car" dep_time="08:00:00" trav_time="00:00:00">
			</leg>
			<activity type="work" link="92" facility="2" x="0.0" y="1500.0" start_time="08:00:00" max_dur="08:00:00" end_time="16:00:00" >
			</activity>
			<leg mode="car" dep_time="16:00:00" trav_time="00:00:00">
			</leg>
			<activity type="shopping" link="32" facility="40" x="4500.0" y="6000.0" start_time="16:00:00" max_dur="04:00:00" end_time="20:00:00" >
			</activity>
			<leg mode="car" dep_time="20:00:00" trav_time="00:00:00">
			</leg>
			<activity type="home" link="178" facility="16" x="9000.0" y="6500.0" start_time="20:00:00" max_dur="04:00:00" end_time="24:00:00" >
			</activity>
		</plan>

	</person>

<!-- ====================================================================== -->

	<person id="14">
		<attributes>
			<attribute name="age" class="java.lang.Integer">86</attribute>
		</attributes>
		<plan selected="yes">
			<activity type="home" link="92" facility="2" x="0.0" y="1500.0" start_time="00:00:00" max_dur="08:00:00" end_time="08:00:00" >
			</activity>
			<leg mode="car" dep_time="08:00:00" trav_time="00:00:00">
			</leg>
			<activity type="work" link="176" facility="14" x="9000.0" y="4500.0" start_time="08:00:00" max_dur="08:00:00" end_time="16:00:00" >
			</activity>
			<leg mode="car" dep_time="16:00:00" trav_time="00:00:00">
			</leg>
			<activity type="shopping" link="41" facility="41" x="4500.0" y="8000.0" start_time="16:00:00" max_dur="04:00:00" end_time="20:00:00" >
			</activity>
			<leg mode="car" dep_time="20:00:00" trav_time="00:00:00">
			</leg>
			<activity type="home" link="92" facility="2" x="0.0" y="1500.0" start_time="20:00:00" max_dur="04:00:00" end_time="24:00:00" >
			</activity>
		</plan>

	</person>

<!-- ====================================================================== -->

	<person id="145">
		<attributes>
			<attribute name="age" class="java.lang.Integer">97</attribute>
		</attributes>
		<plan selected="yes">
			<activity type="home" link="179" facility="17" x="9000.0" y="7500.0" start_time="00:00:00" max_dur="08:00:00" end_time="08:00:00" >
			</activity>
			<leg mode="car" dep_time="08:00:00" trav_time="00:00:00">
			</leg>
			<activity type="work" link="91" facility="1" x="0.0" y="500.0" start_time="08:00:00" max_dur="08:00:00" end_time="16:00:00" >
			</activity>
			<leg mode="car" dep_time="16:00:00" trav_time="00:00:00">
			</leg>
			<activity type="shopping" link="32" facility="40" x="4500.0" y="6000.0" start_time="16:00:00" max_dur="04:00:00" end_time="20:00:00" >
			</activity>
			<leg mode="car" dep_time="20:00:00" trav_time="00:00:00">
			</leg>
			<activity type="home" link="179" facility="17" x="9000.0" y="7500.0" start_time="20:00:00" max_dur="04:00:00" end_time="24:00:00" >
			</activity>
		</plan>

	</person>

<!-- ====================================================================== -->

	<person id="146">
		<attributes>
			<attribute name="age" class="java.lang.Integer">50</attribute>
		</attributes>
		<plan selected="yes">
			<activity type="home" link="179" facility="17" x="9000.0" y="7500.0" start_time="00:00:00" max_dur="08:00:00" end_time="08:00:00" >
			</activity>
			<leg mode="car" dep_time="08:00:00" trav_time="00:00:00">
			</leg>
			<activity type="work" link="92" facility="2" x="0.0" y="1500.0" start_time="08:00:00" max_dur="08:00:00" end_time="16:00:00" >
			</activity>
			<leg mode="car" dep_time="16:00:00" trav_time="00:00:00">
			</leg>
			<activity type="shopping" link="23" facility="39" x="4500.0" y="4000.0" start_time="16:00:00" max_dur="04:00:00" end_time="20:00:00" >
			</activity>
			<leg mode="car" dep_time="20:00:00" trav_time="00:00:00">
			</leg>
			<activity type="home" link="179" facility="17" x="9000.0" y="7500.0" start_time="20:00:00" max_dur="04:00:00" end_time="24:00:00" >
			</activity>
		</plan>

	</person>

<!-- ====================================================================== -->

	<person id="15">
		<attributes>
			<attribute name="age" class="java.lang.Integer">92</attribute>
		</attributes>
		<plan selected="yes">
			<activity type="home" link="92" facility="2" x="0.0" y="1500.0" start_time="00:00:00" max_dur="08:00:00" end_time="08:00:00" >
			</activity>
			<leg mode="car" dep_time="08:00:00" trav_time="00:00:00">
			</leg>
			<activity type="work" link="177" facility="15" x="9000.0" y="5500.0" start_time="08:00:00" max_dur="08:00:00" end_time="16:00:00" >
			</activity>
			<leg mode="car" dep_time="16:00:00" trav_time="00:00:00">
			</leg>
			<activity type="shopping" link="5" facility="37" x="4500.0" y="0.0" start_time="16:00:00" max_dur="04:00:00" end_time="20:00:00" >
			</activity>
			<leg mode="car" dep_time="20:00:00" trav_time="00:00:00">
			</leg>
			<activity type="home" link="92" facility="2" x="0.0" y="1500.0" start_time="20:00:00" max_dur="04:00:00" end_time="24:00:00" >
			</activity>
		</plan>

	</person>

<!-- ====================================================================== -->

	<person id="154">
		<attributes>
			<attribute name="age" class="java.lang.Integer">44</attribute>
		</attributes>
		<plan selected="yes">
			<activity type="home" link="180" facility="18" x="9000.0" y="8500.0" start_time="00:00:00" max_dur="08:00:00" end_time="08:00:00" >
			</activity>
			<leg mode="car" dep_time="08:00:00" trav_time="00:00:00">
			</leg>
			<activity type="work" link="91" facility="1" x="0.0" y="500.0" start_time="08:00:00" max_dur="08:00:00" end_time="16:00:00" >
			</activity>
			<leg mode="car" dep_time="16:00:00" trav_time="00:00:00">
			</leg>
			<activity type="shopping" link="41" facility="41" x="4500.0" y="8000.0" start_time="16:00:00" max_dur="04:00:00" end_time="20:00:00" >
			</activity>
			<leg mode="car" dep_time="20:00:00" trav_time="00:00:00">
			</leg>
			<activity type="home" link="180" facility="18" x="9000.0" y="8500.0" start_time="20:00:00" max_dur="04:00:00" end_time="24:00:00" >
			</activity>
		</plan>

	</person>

<!-- ====================================================================== -->

	<person id="155">
		<attributes>
			<attribute name="age" class="java.lang.Integer">58</attribute>
		</attributes>
		<plan selected="yes">
			<activity type="home" link="180" facility="18" x="9000.0" y="8500.0" start_time="00:00:00" max_dur="08:00:00" end_time="08:00:00" >
			</activity>
			<leg mode="car" dep_time="08:00:00" trav_time="00:00:00">
			</leg>
			<activity type="work" link="92" facility="2" x="0.0" y="1500.0" start_time="08:00:00" max_dur="08:00:00" end_time="16:00:00" >
			</activity>
			<leg mode="car" dep_time="16:00:00" trav_time="00:00:00">
			</leg>
			<activity type="shopping" link="41" facility="41" x="4500.0" y="8000.0" start_time="16:00:00" max_dur="04:00:00" end_time="20:00:00" >
			</activity>
			<leg mode="car" dep_time="20:00:00" trav_time="00:00:00">
			</leg>
			<activity type="home" link="180" facility="18" x="9000.0" y="8500.0" start_time="20:00:00" max_dur="04:00:00" end_time="24:00:00" >
			</activity>
		</plan>

	</person>

<!-- ====================================================================== -->

	<person id="16">
		<attributes>
			<attribute name="age" class="java.lang.Integer">10</attribute>
		</attributes>
		<plan selected="yes">
			<activity type="home" link="92" facility="2" x="0.0" y="1500.0" start_time="00:00:00" max_dur="08:00:00" end_time="08:00:00" >
			</activity>
			<leg mode="car" dep_time="08:00:00" trav_time="00:00:00">
			</leg>
			<activity type="work" link="178" facility="16" x="9000.0" y="6500.0" start_time="08:00:00" max_dur="08:00:00" end_time="16:00:00" >
			</activity>
			<leg mode="car" dep_time="16:00:00" trav_time="00:00:00">
			</leg>
			<activity type="shopping" link="23" facility="39" x="4500.0" y="4000.0" start_time="16:00:00" max_dur="04:00:00" end_time="20:00:00" >
			</activity>
			<leg mode="car" dep_time="20:00:00" trav_time="00:00:00">
			</leg>
			<activity type="home" link="92" facility="2" x="0.0" y="1500.0" start_time="20:00:00" max_dur="04:00:00" end_time="24:00:00" >
			</activity>
		</plan>

	</person>

<!-- ====================================================================== -->

	<person id="163">
		<attributes>
			<attribute name="age" class="java.lang.Integer">72</attribute>
		</attributes>
		<plan selected="yes">
			<activity type="home" link="1" facility="19" x="500.0" y="0.0" start_time="00:00:00" max_dur="08:00:00" end_time="08:00:00" >
			</activity>
			<leg mode="car" dep_time="08:00:00" trav_time="00:00:00">
			</leg>
			<activity type="work" link="82" facility="28" x="500.0" y="9000.0" start_time="08:00:00" max_dur="08:00:00" end_time="16:00:00" >
			</activity>
			<leg mode="car" dep_time="16:00:00" trav_time="00:00:00">
			</leg>
			<activity type="leisure" link="86" facility="46" x="4500.0" y="9000.0" start_time="16:00:00" max_dur="04:00:00" end_time="20:00:00" >
			</activity>
			<leg mode="car" dep_time="20:00:00" trav_time="00:00:00">
			</leg>
			<activity type="home" link="1" facility="19" x="500.0" y="0.0" start_time="20:00:00" max_dur="04:00:00" end_time="24:00:00" >
			</activity>
		</plan>

	</person>

<!-- ====================================================================== -->

	<person id="164">
		<attributes>
			<attribute name="age" class="java.lang.Integer">45</attribute>
		</attributes>
		<plan selected="yes">
			<activity type="home" link="1" facility="19" x="500.0" y="0.0" start_time="00:00:00" max_dur="08:00:00" end_time="08:00:00" >
			</activity>
			<leg mode="car" dep_time="08:00:00" trav_time="00:00:00">
			</leg>
			<activity type="work" link="83" facility="29" x="1500.0" y="9000.0" start_time="08:00:00" max_dur="08:00:00" end_time="16:00:00" >
			</activity>
			<leg mode="car" dep_time="16:00:00" trav_time="00:00:00">
			</leg>
			<activity type="shopping" link="5" facility="37" x="4500.0" y="0.0" start_time="16:00:00" max_dur="04:00:00" end_time="20:00:00" >
			</activity>
			<leg mode="car" dep_time="20:00:00" trav_time="00:00:00">
			</leg>
			<activity type="home" link="1" facility="19" x="500.0" y="0.0" start_time="20:00:00" max_dur="04:00:00" end_time="24:00:00" >
			</activity>
		</plan>

	</person>

<!-- ====================================================================== -->

	<person id="165">
		<attributes>
			<attribute name="age" class="java.lang.Integer">9</attribute>
		</attributes>
		<plan selected="yes">
			<activity type="home" link="1" facility="19" x="500.0" y="0.0" start_time="00:00:00" max_dur="08:00:00" end_time="08:00:00" >
			</activity>
			<leg mode="car" dep_time="08:00:00" trav_time="00:00:00">
			</leg>
			<activity type="work" link="84" facility="30" x="2500.0" y="9000.0" start_time="08:00:00" max_dur="08:00:00" end_time="16:00:00" >
			</activity>
			<leg mode="car" dep_time="16:00:00" trav_time="00:00:00">
			</leg>
			<activity type="leisure" link="68" facility="44" x="4500.0" y="5000.0" start_time="16:00:00" max_dur="04:00:00" end_time="20:00:00" >
			</activity>
			<leg mode="car" dep_time="20:00:00" trav_time="00:00:00">
			</leg>
			<activity type="home" link="1" facility="19" x="500.0" y="0.0" start_time="20:00:00" max_dur="04:00:00" end_time="24:00:00" >
			</activity>
		</plan>

	</person>

<!-- ====================================================================== -->

	<person id="166">
		<attributes>
			<attribute name="age" class="java.lang.Integer">93</attribute>
		</attributes>
		<plan selected="yes">
			<activity type="home" link="1" facility="19" x="500.0" y="0.0" start_time="00:00:00" max_dur="08:00:00" end_time="08:00:00" >
			</activity>
			<leg mode="car" dep_time="08:00:00" trav_time="00:00:00">
			</leg>
			<activity type="work" link="85" facility="31" x="3500.0" y="9000.0" start_time="08:00:00" max_dur="08:00:00" end_time="16:00:00" >
			</activity>
			<leg mode="car" dep_time="16:00:00" trav_time="00:00:00">
			</leg>
			<activity type="leisure" link="50" facility="42" x="4500.0" y="1000.0" start_time="16:00:00" max_dur="04:00:00" end_time="20:00:00" >
			</activity>
			<leg mode="car" dep_time="20:00:00" trav_time="00:00:00">
			</leg>
			<activity type="home" link="1" facility="19" x="500.0" y="0.0" start_time="20:00:00" max_dur="04:00:00" end_time="24:00:00" >
			</activity>
		</plan>

	</person>

<!-- ====================================================================== -->

	<person id="167">
		<attributes>
			<attribute name="age" class="java.lang.Integer">94</attribute>
		</attributes>
		<plan selected="yes">
			<activity type="home" link="1" facility="19" x="500.0" y="0.0" start_time="00:00:00" max_dur="08:00:00" end_time="08:00:00" >
			</activity>
			<leg mode="car" dep_time="08:00:00" trav_time="00:00:00">
			</leg>
			<activity type="work" link="86" facility="32" x="4500.0" y="9000.0" start_time="08:00:00" max_dur="08:00:00" end_time="16:00:00" >
			</activity>
			<leg mode="car" dep_time="16:00:00" trav_time="00:00:00">
			</leg>
			<activity type="shopping" link="41" facility="41" x="4500.0" y="8000.0" start_time="16:00:00" max_dur="04:00:00" end_time="20:00:00" >
			</activity>
			<leg mode="car" dep_time="20:00:00" trav_time="00:00:00">
			</leg>
			<activity type="home" link="1" facility="19" x="500.0" y="0.0" start_time="20:00:00" max_dur="04:00:00" end_time="24:00:00" >
			</activity>
		</plan>

	</person>

<!-- ====================================================================== -->

	<person id="168">
		<attributes>
			<attribute name="age" class="java.lang.Integer">0</attribute>
		</attributes>
		<plan selected="yes">
			<activity type="home" link="1" facility="19" x="500.0" y="0.0" start_time="00:00:00" max_dur="08:00:00" end_time="08:00:00" >
			</activity>
			<leg mode="car" dep_time="08:00:00" trav_time="00:00:00">
			</leg>
			<activity type="work" link="87" facility="33" x="5500.0" y="9000.0" start_time="08:00:00" max_dur="08:00:00" end_time="16:00:00" >
			</activity>
			<leg mode="car" dep_time="16:00:00" trav_time="00:00:00">
			</leg>
			<activity type="leisure" link="59" facility="43" x="4500.0" y="3000.0" start_time="16:00:00" max_dur="04:00:00" end_time="20:00:00" >
			</activity>
			<leg mode="car" dep_time="20:00:00" trav_time="00:00:00">
			</leg>
			<activity type="home" link="1" facility="19" x="500.0" y="0.0" start_time="20:00:00" max_dur="04:00:00" end_time="24:00:00" >
			</activity>
		</plan>

	</person>

<!-- ====================================================================== -->

	<person id="169">
		<attributes>
			<attribute name="age" class="java.lang.Integer">56</attribute>
		</attributes>
		<plan selected="yes">
			<activity type="home" link="1" facility="19" x="500.0" y="0.0" start_time="00:00:00" max_dur="08:00:00" end_time="08:00:00" >
			</activity>