<?xml version="1.0" encoding="UTF-8"?>
<!DOCTYPE transitSchedule SYSTEM "http://www.matsim.org/files/dtd/transitSchedule_v1.dtd">

<transitSchedule>
	<transitStops>
		<stopFacility id="stop0" x="1000.0" y="1000.0" linkRefId= "40"/>
		<stopFacility id="stop5" x="1000.0" y="3000.0" linkRefId= "20"/>
		<stopFacility id="stop10" x="1000.0" y="5000.0" linkRefId= "21"/>
		<stopFacility id="stop15" x="1000.0" y="7000.0" linkRefId= "22"/>		
		<stopFacility id="stop20" x="1000.0" y="9000.0" linkRefId= "23"/>
		<stopFacility id="stop21" x="3000.0" y="9000.0" linkRefId= "16"/>
		<stopFacility id="stop22" x="5000.0" y="9000.0" linkRefId= "17"/>
		<stopFacility id="stop23" x="7000.0" y="9000.0" linkRefId= "18"/>
		<stopFacility id="stop24" x="9000.0" y="9000.0" linkRefId= "19"/>

		<stopFacility id="stop6" x="3000.0" y="3000.0" linkRefId= "4"/>
		<stopFacility id="stop1" x="3000.0" y="1000.0" linkRefId= "64"/>
		<stopFacility id="stop2" x="5000.0" y="1000.0" linkRefId= "1"/>
		<stopFacility id="stop7" x="5000.0" y="3000.0" linkRefId= "28"/>
		<stopFacility id="stop8" x="7000.0" y="3000.0" linkRefId= "6"/>
		<stopFacility id="stop3" x="7000.0" y="1000.0" linkRefId= "72"/>
		<stopFacility id="stop4" x="9000.0" y="1000.0" linkRefId= "3"/>
		<stopFacility id="stop9" x="9000.0" y="3000.0" linkRefId= "36"/>
		<stopFacility id="stop14" x="9000.0" y="5000.0" linkRefId= "37"/>
		<stopFacility id="stop13" x="7000.0" y="5000.0" linkRefId= "51"/>			
		<stopFacility id="stop12" x="5000.0" y="5000.0" linkRefId= "50"/>
		<stopFacility id="stop11" x="3000.0" y="5000.0" linkRefId= "49"/>
		<stopFacility id="stop16" x="3000.0" y="7000.0" linkRefId= "26"/>
		<stopFacility id="stop17" x="5000.0" y="7000.0" linkRefId= "13"/>
		<stopFacility id="stop18" x="7000.0" y="7000.0" linkRefId= "14"/>
 		<stopFacility id="stop19" x="9000.0" y="7000.0" linkRefId= "15"/>
 	</transitStops>

	<transitLine id="My_Transit_Line">  
		<transitRoute id="short_route_0_20">  <!--Short route but with long waiting time-->
			<transportMode>pt</transportMode>
			<routeProfile>
				<stop refId="stop0" arrivalOffset="00:00:00" departureOffset="00:00:00"/>
				<stop refId="stop5" arrivalOffset="00:00:20" departureOffset="00:00:25"/>
				<stop refId="stop10" arrivalOffset="00:00:40" departureOffset="00:00:45"/>
				<stop refId="stop15" arrivalOffset="00:01:00" departureOffset="00:01:05"/>
				<stop refId="stop20" arrivalOffset="00:01:20" departureOffset="00:01:25"/>
				<stop refId="stop21" arrivalOffset="00:01:40" departureOffset="00:01:45"/>
				<stop refId="stop22" arrivalOffset="00:02:00" departureOffset="00:02:05"/>
				<stop refId="stop23" arrivalOffset="00:02:20" departureOffset="00:02:25"/>
				<stop refId="stop24" arrivalOffset="00:02:40" departureOffset="00:02:45"/>
			</routeProfile>
			<route>
				<link refId="40"/>
				<link refId="20"/>
				<link refId="21"/>
				<link refId="22"/>
				<link refId="23"/>
				<link refId="16"/>
				<link refId="17"/>
				<link refId="18"/>
				<link refId="19"/>
			</route>
			<departures>
				<departure id="short0800" departureTime="08:05:00" vehicleRefId="tr_1" />
			</departures>
		</transitRoute>
	
		<transitRoute id="long_route_0_20">  <!--long route but with short waiting time for passengers-->
			<transportMode>pt</transportMode>
			<routeProfile>
				<stop refId="stop0" arrivalOffset="00:00:00" departureOffset="00:00:00"/>
				<stop refId="stop5" arrivalOffset="00:00:20" departureOffset="00:00:25"/>
				<stop refId="stop6" arrivalOffset="00:00:40" departureOffset="00:00:45"/>
				<stop refId="stop1" arrivalOffset="00:01:00" departureOffset="00:01:05"/>
				<stop refId="stop2" arrivalOffset="00:01:20" departureOffset="00:01:25"/>
				<stop refId="stop7" arrivalOffset="00:01:40" departureOffset="00:01:45"/>
				<stop refId="stop8" arrivalOffset="00:02:00" departureOffset="00:02:05"/>
				<stop refId="stop3" arrivalOffset="00:02:20" departureOffset="00:02:25"/>
				<stop refId="stop4" arrivalOffset="00:02:40" departureOffset="00:02:45"/>
				<stop refId="stop9" arrivalOffset="00:03:00" departureOffset="00:03:05"/>
				<stop refId="stop14" arrivalOffset="00:03:20" departureOffset="00:03:25"/>
				<stop refId="stop13" arrivalOffset="00:03:40" departureOffset="00:03:45"/>
				<stop refId="stop12" arrivalOffset="00:04:00" departureOffset="00:04:05"/>
				<stop refId="stop11" arrivalOffset="00:04:20" departureOffset="00:04:25"/>
				<stop refId="stop16" arrivalOffset="00:04:40" departureOffset="00:04:45"/>
				<stop refId="stop17" arrivalOffset="00:05:00" departureOffset="00:05:05"/>
				<stop refId="stop19" arrivalOffset="00:05:20" departureOffset="00:05:25"/>
				<stop refId="stop24" arrivalOffset="00:05:40" departureOffset="00:05:45"/>
			</routeProfile>
			<route>
				
				<link refId="40"/>
				<link refId="20"/>
				<link refId="4"/>
				<link refId="64"/>
				<link refId="1"/>
				<link refId="28"/>
				<link refId="6"/>
				<link refId="72"/>
				<link refId="3"/>
				<link refId="36"/>
				<link refId="37"/>
				<link refId="51"/>
				<link refId="50"/>
				<link refId="49"/>
				<link refId="26"/>
				<link refId="13"/>
				<link refId="14"/>
				<link refId="15"/>
				<link refId="39"/>
			</route>
			<departures>
				<departure id="long0800" departureTime="08:00:00" vehicleRefId="tr_2" />
			</departures>
		</transitRoute>
	
	
	</transitLine>
</transitSchedule>