<?xml version="1.0" encoding="iso-8859-1"?>
<configuration xmlns:xsi="http://www.w3.org/2001/XMLSchema-instance"
 xsi:noNamespaceSchemaLocation="http://sumo.sf.net/xsd/sumoConfiguration.xsd">
    <input>
        <net-file value="siouxfalls-2014.net.xml"/>
        <route-files value="TestFullSumo_.rou.xml"/>
        <additional-files value="input_additional.add.xml"/>
    </input>
    <time-to-teleport value="-1"/>
</configuration>
