<?xml version="1.0" encoding="utf-8"?>
<!DOCTYPE network SYSTEM "http://www.matsim.org/files/dtd/network_v1.dtd">

<network name="intersection test network crossing with 2 arms">
   <nodes>
      <node id="2" x="0" y="0"/>
	   
	  <node id="1" x="-500" y="0"/>
      <node id="3" x="500" y="0"/>
      <node id="4" x="500" y="-100"/>
      <node id="5" x="-500" y="-100"/>
   </nodes>
   <links capperiod="01:00:00">
      <link id="1" from="1" to="2" length="500.00" capacity="3600" freespeed="13.88" permlanes="1"  />
      <link id="2" from="2" to="3" length="500.00" capacity="3600" freespeed="13.88" permlanes="1"  />
      <link id="3" from="3" to="4" length="100.00" capacity="3600" freespeed="13.88" permlanes="1"  />
      <link id="4" from="4" to="5" length="1000.00" capacity="3600" freespeed="13.88" permlanes="1"  />
      <link id="5" from="5" to="1" length="100.00" capacity="3600" freespeed="13.88" permlanes="1"  />
   </links>
</network>
