<?xml version="1.0" encoding="UTF-8"?>
<!DOCTYPE facilities SYSTEM "http://www.matsim.org/files/dtd/facilities_v1.dtd">
<facilities>

<!-- ====================================================================== -->

	<facility id="114_curbside" linkId="114" x="-300.0" y="-790.0">
		<activity type="car interaction">
			<capacity value="0.0" />
		</activity>

	</facility>
	
	<facility id="333_curbside" linkId="333" x="-900.0" y="-400.0">
		<activity type="car interaction">
			<capacity value="1.0" />
		</activity>

	</facility>

<!-- ====================================================================== -->

	<facility id="324_curbside" linkId="323" x="-700.0" y="-600.0">
		<activity type="car interaction">
			<capacity value="1.0" />
		</activity>

	</facility>
	<facility id="149_curbside" linkId="149" x="300.0" y="-190.0">
		<activity type="car interaction">
			<capacity value="0.0" />
		</activity>

	</facility>

<!-- ====================================================================== -->

</facilities>
