<?xml version="1.0" encoding="utf-8"?>
<!DOCTYPE population SYSTEM "http://www.matsim.org/files/dtd/population_v5.dtd">

<population>

<!-- ====================================================================== -->

	<person id="person-0" car_avail="never" employed="no">
		<plan selected="yes">
			<act type="h" link="1" x="-25000.0" y="0.0" end_time="06:55:50" />
			<leg mode="walk">
			</leg>
			<act type="w" link="20" x="10000.0" y="0.0" end_time="19:47:56" />
			<leg mode="walk">
			</leg>
			<act type="h" link="1" x="-25000.0" y="0.0" />
		</plan>

	</person>

<!-- ====================================================================== -->

	<person id="person-1" employed="no">
		<plan selected="yes">
			<act type="h" link="1" x="-25000.0" y="0.0" end_time="10:48:53" />
			<leg mode="walk">
			</leg>
			<act type="w" link="20" x="10000.0" y="0.0" end_time="14:14:33" />
			<leg mode="walk">
			</leg>
			<act type="h" link="1" x="-25000.0" y="0.0" />
		</plan>

	</person>

<!-- ====================================================================== -->

	<person id="person-10" car_avail="never" employed="no">
		<plan selected="yes">
			<act type="h" link="1" x="-25000.0" y="0.0" end_time="04:10:42" />
			<leg mode="walk">
			</leg>
			<act type="w" link="20" x="10000.0" y="0.0" end_time="22:28:16" />
			<leg mode="walk">
			</leg>
			<act type="h" link="1" x="-25000.0" y="0.0" />
		</plan>

	</person>

<!-- ====================================================================== -->

	<person id="person-100" car_avail="never" employed="no">
		<plan selected="yes">
			<act type="h" link="1" x="-25000.0" y="0.0" end_time="00:26:12" />
			<leg mode="walk">
			</leg>
			<act type="w" link="20" x="10000.0" y="0.0" end_time="14:19:33" />
			<leg mode="walk">
			</leg>
			<act type="h" link="1" x="-25000.0" y="0.0" />
		</plan>

	</person>

<!-- ====================================================================== -->

	<person id="person-1000" car_avail="never" employed="no">
		<plan selected="yes">
			<act type="h" link="1" x="-25000.0" y="0.0" end_time="11:04:51" />
			<leg mode="walk">
			</leg>
			<act type="w" link="20" x="10000.0" y="0.0" end_time="20:36:10" />
			<leg mode="walk">
			</leg>
			<act type="h" link="1" x="-25000.0" y="0.0" />
		</plan>

	</person>

<!-- ====================================================================== -->

	<person id="person-1001" employed="no">
		<plan selected="yes">
			<act type="h" link="1" x="-25000.0" y="0.0" end_time="05:31:46" />
			<leg mode="walk">
			</leg>
			<act type="w" link="20" x="10000.0" y="0.0" end_time="15:06:46" />
			<leg mode="walk">
			</leg>
			<act type="h" link="1" x="-25000.0" y="0.0" />
		</plan>

	</person>

<!-- ====================================================================== -->

	<person id="person-1002" car_avail="never" employed="no">
		<plan selected="yes">
			<act type="h" link="1" x="-25000.0" y="0.0" end_time="03:27:47" />
			<leg mode="walk">
			</leg>
			<act type="w" link="20" x="10000.0" y="0.0" end_time="20:12:53" />
			<leg mode="walk">
			</leg>
			<act type="h" link="1" x="-25000.0" y="0.0" />
		</plan>

	</person>

<!-- ====================================================================== -->

	<person id="person-1003" employed="no">
		<plan selected="yes">
			<act type="h" link="1" x="-25000.0" y="0.0" end_time="00:30:31" />
			<leg mode="walk">
			</leg>
			<act type="w" link="20" x="10000.0" y="0.0" end_time="20:58:27" />
			<leg mode="walk">
			</leg>
			<act type="h" link="1" x="-25000.0" y="0.0" />
		</plan>

	</person>

<!-- ====================================================================== -->

	<person id="person-1004" car_avail="never" employed="no">
		<plan selected="yes">
			<act type="h" link="1" x="-25000.0" y="0.0" end_time="05:45:13" />
			<leg mode="walk">
			</leg>
			<act type="w" link="20" x="10000.0" y="0.0" end_time="23:59:25" />
			<leg mode="walk">
			</leg>
			<act type="h" link="1" x="-25000.0" y="0.0" />
		</plan>

	</person>

<!-- ====================================================================== -->

	<person id="person-1005" employed="no">
		<plan selected="yes">
			<act type="h" link="1" x="-25000.0" y="0.0" end_time="00:37:25" />
			<leg mode="walk">
			</leg>
			<act type="w" link="20" x="10000.0" y="0.0" end_time="12:27:30" />
			<leg mode="walk">
			</leg>
			<act type="h" link="1" x="-25000.0" y="0.0" />
		</plan>

	</person>

<!-- ====================================================================== -->

	<person id="person-1006" car_avail="never" employed="no">
		<plan selected="yes">
			<act type="h" link="1" x="-25000.0" y="0.0" end_time="00:08:59" />
			<leg mode="walk">
			</leg>
			<act type="w" link="20" x="10000.0" y="0.0" end_time="18:23:34" />
			<leg mode="walk">
			</leg>
			<act type="h" link="1" x="-25000.0" y="0.0" />
		</plan>

	</person>

<!-- ====================================================================== -->

	<person id="person-1007" employed="no">
		<plan selected="yes">
			<act type="h" link="1" x="-25000.0" y="0.0" end_time="01:09:43" />
			<leg mode="walk">
			</leg>
			<act type="w" link="20" x="10000.0" y="0.0" end_time="14:44:50" />
			<leg mode="walk">
			</leg>
			<act type="h" link="1" x="-25000.0" y="0.0" />
		</plan>

	</person>

<!-- ====================================================================== -->

	<person id="person-1008" car_avail="never" employed="no">
		<plan selected="yes">
			<act type="h" link="1" x="-25000.0" y="0.0" end_time="10:00:29" />
			<leg mode="walk">
			</leg>
			<act type="w" link="20" x="10000.0" y="0.0" end_time="14:25:45" />
			<leg mode="walk">
			</leg>
			<act type="h" link="1" x="-25000.0" y="0.0" />
		</plan>

	</person>

<!-- ====================================================================== -->

	<person id="person-1009" employed="no">
		<plan selected="yes">
			<act type="h" link="1" x="-25000.0" y="0.0" end_time="05:30:21" />
			<leg mode="walk">
			</leg>
			<act type="w" link="20" x="10000.0" y="0.0" end_time="23:46:49" />
			<leg mode="walk">
			</leg>
			<act type="h" link="1" x="-25000.0" y="0.0" />
		</plan>

	</person>

<!-- ====================================================================== -->

	<person id="person-101" employed="no">
		<plan selected="yes">
			<act type="h" link="1" x="-25000.0" y="0.0" end_time="09:38:37" />
			<leg mode="walk">
			</leg>
			<act type="w" link="20" x="10000.0" y="0.0" end_time="21:32:49" />
			<leg mode="walk">
			</leg>
			<act type="h" link="1" x="-25000.0" y="0.0" />
		</plan>

	</person>

<!-- ====================================================================== -->

	<person id="person-1010" car_avail="never" employed="no">
		<plan selected="yes">
			<act type="h" link="1" x="-25000.0" y="0.0" end_time="08:37:57" />
			<leg mode="walk">
			</leg>
			<act type="w" link="20" x="10000.0" y="0.0" end_time="20:46:43" />
			<leg mode="walk">
			</leg>
			<act type="h" link="1" x="-25000.0" y="0.0" />
		</plan>

	</person>

<!-- ====================================================================== -->

	<person id="person-1011" employed="no">
		<plan selected="yes">
			<act type="h" link="1" x="-25000.0" y="0.0" end_time="03:46:18" />
			<leg mode="walk">
			</leg>
			<act type="w" link="20" x="10000.0" y="0.0" end_time="13:36:28" />
			<leg mode="walk">
			</leg>
			<act type="h" link="1" x="-25000.0" y="0.0" />
		</plan>

	</person>

<!-- ====================================================================== -->

	<person id="person-1012" car_avail="never" employed="no">
		<plan selected="yes">
			<act type="h" link="1" x="-25000.0" y="0.0" end_time="06:10:12" />
			<leg mode="walk">
			</leg>
			<act type="w" link="20" x="10000.0" y="0.0" end_time="21:31:30" />
			<leg mode="walk">
			</leg>
			<act type="h" link="1" x="-25000.0" y="0.0" />
		</plan>

	</person>

<!-- ====================================================================== -->

	<person id="person-1013" employed="no">
		<plan selected="yes">
			<act type="h" link="1" x="-25000.0" y="0.0" end_time="08:48:30" />
			<leg mode="walk">
			</leg>
			<act type="w" link="20" x="10000.0" y="0.0" end_time="14:05:16" />
			<leg mode="walk">
			</leg>
			<act type="h" link="1" x="-25000.0" y="0.0" />
		</plan>

	</person>

<!-- ====================================================================== -->

	<person id="person-1014" car_avail="never" employed="no">
		<plan selected="yes">
			<act type="h" link="1" x="-25000.0" y="0.0" end_time="05:34:36" />
			<leg mode="walk">
			</leg>
			<act type="w" link="20" x="10000.0" y="0.0" end_time="13:21:23" />
			<leg mode="walk">
			</leg>
			<act type="h" link="1" x="-25000.0" y="0.0" />
		</plan>

	</person>

<!-- ====================================================================== -->

	<person id="person-1015" employed="no">
		<plan selected="yes">
			<act type="h" link="1" x="-25000.0" y="0.0" end_time="03:58:21" />
			<leg mode="walk">
			</leg>
			<act type="w" link="20" x="10000.0" y="0.0" end_time="19:58:50" />
			<leg mode="walk">
			</leg>
			<act type="h" link="1" x="-25000.0" y="0.0" />
		</plan>

	</person>

<!-- ====================================================================== -->

	<person id="person-1016" car_avail="never" employed="no">
		<plan selected="yes">
			<act type="h" link="1" x="-25000.0" y="0.0" end_time="11:21:58" />
			<leg mode="walk">
			</leg>
			<act type="w" link="20" x="10000.0" y="0.0" end_time="15:04:29" />
			<leg mode="walk">
			</leg>
			<act type="h" link="1" x="-25000.0" y="0.0" />
		</plan>

	</person>

<!-- ====================================================================== -->

	<person id="person-1017" employed="no">
		<plan selected="yes">
			<act type="h" link="1" x="-25000.0" y="0.0" end_time="03:02:42" />
			<leg mode="walk">
			</leg>
			<act type="w" link="20" x="10000.0" y="0.0" end_time="15:10:00" />
			<leg mode="walk">
			</leg>
			<act type="h" link="1" x="-25000.0" y="0.0" />
		</plan>

	</person>

<!-- ====================================================================== -->

	<person id="person-1018" car_avail="never" employed="no">
		<plan selected="yes">
			<act type="h" link="1" x="-25000.0" y="0.0" end_time="08:59:57" />
			<leg mode="walk">
			</leg>
			<act type="w" link="20" x="10000.0" y="0.0" end_time="12:36:40" />
			<leg mode="walk">
			</leg>
			<act type="h" link="1" x="-25000.0" y="0.0" />
		</plan>

	</person>

<!-- ====================================================================== -->

	<person id="person-1019" employed="no">
		<plan selected="yes">
			<act type="h" link="1" x="-25000.0" y="0.0" end_time="03:58:30" />
			<leg mode="walk">
			</leg>
			<act type="w" link="20" x="10000.0" y="0.0" end_time="12:44:55" />
			<leg mode="walk">
			</leg>
			<act type="h" link="1" x="-25000.0" y="0.0" />
		</plan>

	</person>

<!-- ====================================================================== -->

	<person id="person-102" car_avail="never" employed="no">
		<plan selected="yes">
			<act type="h" link="1" x="-25000.0" y="0.0" end_time="04:02:21" />
			<leg mode="walk">
			</leg>
			<act type="w" link="20" x="10000.0" y="0.0" end_time="17:43:27" />
			<leg mode="walk">
			</leg>
			<act type="h" link="1" x="-25000.0" y="0.0" />
		</plan>

	</person>

<!-- ====================================================================== -->

	<person id="person-1020" car_avail="never" employed="no">
		<plan selected="yes">
			<act type="h" link="1" x="-25000.0" y="0.0" end_time="08:16:49" />
			<leg mode="walk">
			</leg>
			<act type="w" link="20" x="10000.0" y="0.0" end_time="21:28:37" />
			<leg mode="walk">
			</leg>
			<act type="h" link="1" x="-25000.0" y="0.0" />
		</plan>

	</person>

<!-- ====================================================================== -->

	<person id="person-1021" employed="no">
		<plan selected="yes">
			<act type="h" link="1" x="-25000.0" y="0.0" end_time="06:50:44" />
			<leg mode="walk">
			</leg>
			<act type="w" link="20" x="10000.0" y="0.0" end_time="19:13:43" />
			<leg mode="walk">
			</leg>
			<act type="h" link="1" x="-25000.0" y="0.0" />
		</plan>

	</person>

<!-- ====================================================================== -->

	<person id="person-1022" car_avail="never" employed="no">
		<plan selected="yes">
			<act type="h" link="1" x="-25000.0" y="0.0" end_time="09:00:43" />
			<leg mode="walk">
			</leg>
			<act type="w" link="20" x="10000.0" y="0.0" end_time="19:41:03" />
			<leg mode="walk">
			</leg>
			<act type="h" link="1" x="-25000.0" y="0.0" />
		</plan>

	</person>

<!-- ====================================================================== -->

	<person id="person-1023" employed="no">
		<plan selected="yes">
			<act type="h" link="1" x="-25000.0" y="0.0" end_time="10:30:52" />
			<leg mode="walk">
			</leg>
			<act type="w" link="20" x="10000.0" y="0.0" end_time="12:43:53" />
			<leg mode="walk">
			</leg>
			<act type="h" link="1" x="-25000.0" y="0.0" />
		</plan>

	</person>

<!-- ====================================================================== -->

	<person id="person-1024" car_avail="never" employed="no">
		<plan selected="yes">
			<act type="h" link="1" x="-25000.0" y="0.0" end_time="01:25:36" />
			<leg mode="walk">
			</leg>
			<act type="w" link="20" x="10000.0" y="0.0" end_time="23:38:45" />
			<leg mode="walk">
			</leg>
			<act type="h" link="1" x="-25000.0" y="0.0" />
		</plan>

	</person>

<!-- ====================================================================== -->

	<person id="person-1025" employed="no">
		<plan selected="yes">
			<act type="h" link="1" x="-25000.0" y="0.0" end_time="09:51:01" />
			<leg mode="walk">
			</leg>
			<act type="w" link="20" x="10000.0" y="0.0" end_time="21:25:12" />
			<leg mode="walk">
			</leg>
			<act type="h" link="1" x="-25000.0" y="0.0" />
		</plan>

	</person>

<!-- ====================================================================== -->

	<person id="person-1026" car_avail="never" employed="no">
		<plan selected="yes">
			<act type="h" link="1" x="-25000.0" y="0.0" end_time="05:32:40" />
			<leg mode="walk">
			</leg>
			<act type="w" link="20" x="10000.0" y="0.0" end_time="19:25:54" />
			<leg mode="walk">
			</leg>
			<act type="h" link="1" x="-25000.0" y="0.0" />
		</plan>

	</person>

<!-- ====================================================================== -->

	<person id="person-1027" employed="no">
		<plan selected="yes">
			<act type="h" link="1" x="-25000.0" y="0.0" end_time="06:17:35" />
			<leg mode="walk">
			</leg>
			<act type="w" link="20" x="10000.0" y="0.0" end_time="18:47:44" />
			<leg mode="walk">
			</leg>
			<act type="h" link="1" x="-25000.0" y="0.0" />
		</plan>

	</person>

<!-- ====================================================================== -->

	<person id="person-1028" car_avail="never" employed="no">
		<plan selected="yes">
			<act type="h" link="1" x="-25000.0" y="0.0" end_time="06:37:05" />
			<leg mode="walk">
			</leg>
			<act type="w" link="20" x="10000.0" y="0.0" end_time="17:58:23" />
			<leg mode="walk">
			</leg>
			<act type="h" link="1" x="-25000.0" y="0.0" />
		</plan>

	</person>

<!-- ====================================================================== -->

	<person id="person-1029" employed="no">
		<plan selected="yes">
			<act type="h" link="1" x="-25000.0" y="0.0" end_time="02:40:45" />
			<leg mode="walk">
			</leg>
			<act type="w" link="20" x="10000.0" y="0.0" end_time="21:28:53" />
			<leg mode="walk">
			</leg>
			<act type="h" link="1" x="-25000.0" y="0.0" />
		</plan>

	</person>

<!-- ====================================================================== -->

	<person id="person-103" employed="no">
		<plan selected="yes">
			<act type="h" link="1" x="-25000.0" y="0.0" end_time="04:05:53" />
			<leg mode="walk">
			</leg>
			<act type="w" link="20" x="10000.0" y="0.0" end_time="15:02:46" />
			<leg mode="walk">
			</leg>
			<act type="h" link="1" x="-25000.0" y="0.0" />
		</plan>

	</person>

<!-- ====================================================================== -->

	<person id="person-1030" car_avail="never" employed="no">
		<plan selected="yes">
			<act type="h" link="1" x="-25000.0" y="0.0" end_time="10:13:21" />
			<leg mode="walk">
			</leg>
			<act type="w" link="20" x="10000.0" y="0.0" end_time="15:25:42" />
			<leg mode="walk">
			</leg>
			<act type="h" link="1" x="-25000.0" y="0.0" />
		</plan>

	</person>

<!-- ====================================================================== -->

	<person id="person-1031" employed="no">
		<plan selected="yes">
			<act type="h" link="1" x="-25000.0" y="0.0" end_time="10:50:08" />
			<leg mode="walk">
			</leg>
			<act type="w" link="20" x="10000.0" y="0.0" end_time="22:23:38" />
			<leg mode="walk">
			</leg>
			<act type="h" link="1" x="-25000.0" y="0.0" />
		</plan>

	</person>

<!-- ====================================================================== -->

	<person id="person-1032" car_avail="never" employed="no">
		<plan selected="yes">
			<act type="h" link="1" x="-25000.0" y="0.0" end_time="00:17:40" />
			<leg mode="walk">
			</leg>
			<act type="w" link="20" x="10000.0" y="0.0" end_time="16:53:17" />
			<leg mode="walk">
			</leg>
			<act type="h" link="1" x="-25000.0" y="0.0" />
		</plan>

	</person>

<!-- ====================================================================== -->

	<person id="person-1033" employed="no">
		<plan selected="yes">
			<act type="h" link="1" x="-25000.0" y="0.0" end_time="05:24:19" />
			<leg mode="walk">
			</leg>
			<act type="w" link="20" x="10000.0" y="0.0" end_time="13:51:53" />
			<leg mode="walk">
			</leg>
			<act type="h" link="1" x="-25000.0" y="0.0" />
		</plan>

	</person>

<!-- ====================================================================== -->

	<person id="person-1034" car_avail="never" employed="no">
		<plan selected="yes">
			<act type="h" link="1" x="-25000.0" y="0.0" end_time="04:34:14" />
			<leg mode="walk">
			</leg>
			<act type="w" link="20" x="10000.0" y="0.0" end_time="22:58:06" />
			<leg mode="walk">
			</leg>
			<act type="h" link="1" x="-25000.0" y="0.0" />
		</plan>

	</person>

<!-- ====================================================================== -->

	<person id="person-1035" employed="no">
		<plan selected="yes">
			<act type="h" link="1" x="-25000.0" y="0.0" end_time="01:41:01" />
			<leg mode="walk">
			</leg>
			<act type="w" link="20" x="10000.0" y="0.0" end_time="23:19:40" />
			<leg mode="walk">
			</leg>
			<act type="h" link="1" x="-25000.0" y="0.0" />
		</plan>

	</person>

<!-- ====================================================================== -->

	<person id="person-1036" car_avail="never" employed="no">
		<plan selected="yes">
			<act type="h" link="1" x="-25000.0" y="0.0" end_time="02:23:30" />
			<leg mode="walk">
			</leg>
			<act type="w" link="20" x="10000.0" y="0.0" end_time="16:33:34" />
			<leg mode="walk">
			</leg>
			<act type="h" link="1" x="-25000.0" y="0.0" />
		</plan>

	</person>

<!-- ====================================================================== -->

	<person id="person-1037" employed="no">
		<plan selected="yes">
			<act type="h" link="1" x="-25000.0" y="0.0" end_time="10:56:58" />
			<leg mode="walk">
			</leg>
			<act type="w" link="20" x="10000.0" y="0.0" end_time="22:35:36" />
			<leg mode="walk">
			</leg>
			<act type="h" link="1" x="-25000.0" y="0.0" />
		</plan>

	</person>

<!-- ====================================================================== -->

	<person id="person-1038" car_avail="never" employed="no">
		<plan selected="yes">
			<act type="h" link="1" x="-25000.0" y="0.0" end_time="05:42:36" />
			<leg mode="walk">
			</leg>
			<act type="w" link="20" x="10000.0" y="0.0" end_time="17:06:26" />
			<leg mode="walk">
			</leg>
			<act type="h" link="1" x="-25000.0" y="0.0" />
		</plan>

	</person>

<!-- ====================================================================== -->

	<person id="person-1039" employed="no">
		<plan selected="yes">
			<act type="h" link="1" x="-25000.0" y="0.0" end_time="09:50:47" />
			<leg mode="walk">
			</leg>
			<act type="w" link="20" x="10000.0" y="0.0" end_time="20:32:05" />
			<leg mode="walk">
			</leg>
			<act type="h" link="1" x="-25000.0" y="0.0" />
		</plan>

	</person>

<!-- ====================================================================== -->

	<person id="person-104" car_avail="never" employed="no">
		<plan selected="yes">
			<act type="h" link="1" x="-25000.0" y="0.0" end_time="09:26:23" />
			<leg mode="walk">
			</leg>
			<act type="w" link="20" x="10000.0" y="0.0" end_time="14:20:52" />
			<leg mode="walk">
			</leg>
			<act type="h" link="1" x="-25000.0" y="0.0" />
		</plan>

	</person>

<!-- ====================================================================== -->

	<person id="person-1040" car_avail="never" employed="no">
		<plan selected="yes">
			<act type="h" link="1" x="-25000.0" y="0.0" end_time="01:24:56" />
			<leg mode="walk">
			</leg>
			<act type="w" link="20" x="10000.0" y="0.0" end_time="12:17:21" />
			<leg mode="walk">
			</leg>
			<act type="h" link="1" x="-25000.0" y="0.0" />
		</plan>

	</person>

<!-- ====================================================================== -->

	<person id="person-1041" employed="no">
		<plan selected="yes">
			<act type="h" link="1" x="-25000.0" y="0.0" end_time="02:49:08" />
			<leg mode="walk">
			</leg>
			<act type="w" link="20" x="10000.0" y="0.0" end_time="12:10:22" />
			<leg mode="walk">
			</leg>
			<act type="h" link="1" x="-25000.0" y="0.0" />
		</plan>

	</person>

<!-- ====================================================================== -->

	<person id="person-1042" car_avail="never" employed="no">
		<plan selected="yes">
			<act type="h" link="1" x="-25000.0" y="0.0" end_time="09:43:36" />
			<leg mode="walk">
			</leg>
			<act type="w" link="20" x="10000.0" y="0.0" end_time="15:47:31" />
			<leg mode="walk">
			</leg>
			<act type="h" link="1" x="-25000.0" y="0.0" />
		</plan>

	</person>

<!-- ====================================================================== -->

	<person id="person-1043" employed="no">
		<plan selected="yes">
			<act type="h" link="1" x="-25000.0" y="0.0" end_time="10:25:59" />
			<leg mode="walk">
			</leg>
			<act type="w" link="20" x="10000.0" y="0.0" end_time="14:41:35" />
			<leg mode="walk">
			</leg>
			<act type="h" link="1" x="-25000.0" y="0.0" />
		</plan>

	</person>

<!-- ====================================================================== -->

	<person id="person-1044" car_avail="never" employed="no">
		<plan selected="yes">
			<act type="h" link="1" x="-25000.0" y="0.0" end_time="09:23:42" />
			<leg mode="walk">
			</leg>
			<act type="w" link="20" x="10000.0" y="0.0" end_time="15:08:28" />
			<leg mode="walk">
			</leg>
			<act type="h" link="1" x="-25000.0" y="0.0" />
		</plan>

	</person>

<!-- ====================================================================== -->

	<person id="person-1045" employed="no">
		<plan selected="yes">
			<act type="h" link="1" x="-25000.0" y="0.0" end_time="05:36:45" />
			<leg mode="walk">
			</leg>
			<act type="w" link="20" x="10000.0" y="0.0" end_time="12:50:28" />
			<leg mode="walk">
			</leg>
			<act type="h" link="1" x="-25000.0" y="0.0" />
		</plan>

	</person>

<!-- ====================================================================== -->

	<person id="person-1046" car_avail="never" employed="no">
		<plan selected="yes">
			<act type="h" link="1" x="-25000.0" y="0.0" end_time="05:52:49" />
			<leg mode="walk">
			</leg>
			<act type="w" link="20" x="10000.0" y="0.0" end_time="13:07:36" />
			<leg mode="walk">
			</leg>
			<act type="h" link="1" x="-25000.0" y="0.0" />
		</plan>

	</person>

<!-- ====================================================================== -->

	<person id="person-1047" employed="no">
		<plan selected="yes">
			<act type="h" link="1" x="-25000.0" y="0.0" end_time="00:23:15" />
			<leg mode="walk">
			</leg>
			<act type="w" link="20" x="10000.0" y="0.0" end_time="14:26:36" />
			<leg mode="walk">
			</leg>
			<act type="h" link="1" x="-25000.0" y="0.0" />
		</plan>

	</person>

<!-- ====================================================================== -->

	<person id="person-1048" car_avail="never" employed="no">
		<plan selected="yes">
			<act type="h" link="1" x="-25000.0" y="0.0" end_time="09:23:19" />
			<leg mode="walk">
			</leg>
			<act type="w" link="20" x="10000.0" y="0.0" end_time="14:21:22" />
			<leg mode="walk">
			</leg>
			<act type="h" link="1" x="-25000.0" y="0.0" />
		</plan>

	</person>

<!-- ====================================================================== -->

	<person id="person-1049" employed="no">
		<plan selected="yes">
			<act type="h" link="1" x="-25000.0" y="0.0" end_time="09:42:57" />
			<leg mode="walk">
			</leg>
			<act type="w" link="20" x="10000.0" y="0.0" end_time="21:27:32" />
			<leg mode="walk">
			</leg>
			<act type="h" link="1" x="-25000.0" y="0.0" />
		</plan>

	</person>

<!-- ====================================================================== -->

	<person id="person-105" employed="no">
		<plan selected="yes">
			<act type="h" link="1" x="-25000.0" y="0.0" end_time="00:16:24" />
			<leg mode="walk">
			</leg>
			<act type="w" link="20" x="10000.0" y="0.0" end_time="12:10:51" />
			<leg mode="walk">
			</leg>
			<act type="h" link="1" x="-25000.0" y="0.0" />
		</plan>

	</person>

<!-- ====================================================================== -->

	<person id="person-1050" car_avail="never" employed="no">
		<plan selected="yes">
			<act type="h" link="1" x="-25000.0" y="0.0" end_time="05:49:30" />
			<leg mode="walk">
			</leg>
			<act type="w" link="20" x="10000.0" y="0.0" end_time="20:49:18" />
			<leg mode="walk">
			</leg>
			<act type="h" link="1" x="-25000.0" y="0.0" />
		</plan>

	</person>

<!-- ====================================================================== -->

	<person id="person-1051" employed="no">
		<plan selected="yes">
			<act type="h" link="1" x="-25000.0" y="0.0" end_time="10:14:46" />
			<leg mode="walk">
			</leg>
			<act type="w" link="20" x="10000.0" y="0.0" end_time="17:01:17" />
			<leg mode="walk">
			</leg>
			<act type="h" link="1" x="-25000.0" y="0.0" />
		</plan>

	</person>

<!-- ====================================================================== -->

	<person id="person-1052" car_avail="never" employed="no">
		<plan selected="yes">
			<act type="h" link="1" x="-25000.0" y="0.0" end_time="05:12:45" />
			<leg mode="walk">
			</leg>
			<act type="w" link="20" x="10000.0" y="0.0" end_time="13:05:41" />
			<leg mode="walk">
			</leg>
			<act type="h" link="1" x="-25000.0" y="0.0" />
		</plan>

	</person>

<!-- ====================================================================== -->

	<person id="person-1053" employed="no">
		<plan selected="yes">
			<act type="h" link="1" x="-25000.0" y="0.0" end_time="10:36:13" />
			<leg mode="walk">
			</leg>
			<act type="w" link="20" x="10000.0" y="0.0" end_time="22:20:12" />
			<leg mode="walk">
			</leg>
			<act type="h" link="1" x="-25000.0" y="0.0" />
		</plan>

	</person>

<!-- ====================================================================== -->

	<person id="person-1054" car_avail="never" employed="no">
		<plan selected="yes">
			<act type="h" link="1" x="-25000.0" y="0.0" end_time="11:00:50" />
			<leg mode="walk">
			</leg>
			<act type="w" link="20" x="10000.0" y="0.0" end_time="22:52:14" />
			<leg mode="walk">
			</leg>
			<act type="h" link="1" x="-25000.0" y="0.0" />
		</plan>

	</person>

<!-- ====================================================================== -->

	<person id="person-1055" employed="no">
		<plan selected="yes">
			<act type="h" link="1" x="-25000.0" y="0.0" end_time="03:50:38" />
			<leg mode="walk">
			</leg>
			<act type="w" link="20" x="10000.0" y="0.0" end_time="21:06:15" />
			<leg mode="walk">
			</leg>
			<act type="h" link="1" x="-25000.0" y="0.0" />
		</plan>

	</person>

<!-- ====================================================================== -->

	<person id="person-1056" car_avail="never" employed="no">
		<plan selected="yes">
			<act type="h" link="1" x="-25000.0" y="0.0" end_time="02:03:59" />
			<leg mode="walk">
			</leg>
			<act type="w" link="20" x="10000.0" y="0.0" end_time="16:03:42" />
			<leg mode="walk">
			</leg>
			<act type="h" link="1" x="-25000.0" y="0.0" />
		</plan>

	</person>

<!-- ====================================================================== -->

	<person id="person-1057" employed="no">
		<plan selected="yes">
			<act type="h" link="1" x="-25000.0" y="0.0" end_time="10:10:38" />
			<leg mode="walk">
			</leg>
			<act type="w" link="20" x="10000.0" y="0.0" end_time="19:17:42" />
			<leg mode="walk">
			</leg>
			<act type="h" link="1" x="-25000.0" y="0.0" />
		</plan>

	</person>

<!-- ====================================================================== -->

	<person id="person-1058" car_avail="never" employed="no">
		<plan selected="yes">
			<act type="h" link="1" x="-25000.0" y="0.0" end_time="00:27:39" />
			<leg mode="walk">
			</leg>
			<act type="w" link="20" x="10000.0" y="0.0" end_time="23:30:13" />
			<leg mode="walk">
			</leg>
			<act type="h" link="1" x="-25000.0" y="0.0" />
		</plan>

	</person>

<!-- ====================================================================== -->

	<person id="person-1059" employed="no">
		<plan selected="yes">
			<act type="h" link="1" x="-25000.0" y="0.0" end_time="06:53:07" />
			<leg mode="walk">
			</leg>
			<act type="w" link="20" x="10000.0" y="0.0" end_time="12:39:29" />
			<leg mode="walk">
			</leg>
			<act type="h" link="1" x="-25000.0" y="0.0" />
		</plan>

	</person>

<!-- ====================================================================== -->

	<person id="person-106" car_avail="never" employed="no">
		<plan selected="yes">