<?xml version="1.0" encoding="UTF-8"?>
<!DOCTYPE facilities SYSTEM "http://www.matsim.org/files/dtd/facilities_v1.dtd">
<facilities>

<!-- ====================================================================== -->

	<facility id="0" x="890.0" y="685.0">
		<activity type="home">
		</activity>

	</facility>

<!-- ====================================================================== -->

	<facility id="1" x="1802.0" y="2782.0">
		<activity type="work">
			<opentime day="wkday" start_time="06:00:00" end_time="17:43:36" />
		</activity>

	</facility>

<!-- ====================================================================== -->

	<facility id="10" x="3619.0" y="1217.0">
		<activity type="work">
			<opentime day="wkday" start_time="06:00:00" end_time="17:27:24" />
		</activity>

	</facility>

<!-- ====================================================================== -->

	<facility id="100" x="2361.0" y="2845.0">
		<activity type="work">
			<opentime day="wkday" start_time="06:00:00" end_time="17:03:25" />
		</activity>

	</facility>

<!-- ====================================================================== -->

	<facility id="1000" x="3760.0" y="1387.0">
		<activity type="work">
			<opentime day="wkday" start_time="06:00:00" end_time="17:27:00" />
		</activity>

	</facility>

<!-- ====================================================================== -->

	<facility id="1001" x="2336.0" y="2947.0">
		<activity type="shop">
			<opentime day="wkday" start_time="06:00:00" end_time="18:05:31" />
		</activity>

	</facility>

<!-- ====================================================================== -->

	<facility id="1002" x="1083.0" y="3628.0">
		<activity type="home">
		</activity>

	</facility>

<!-- ====================================================================== -->

	<facility id="1003" x="3679.0" y="1172.0">
		<activity type="work">
			<opentime day="wkday" start_time="06:00:00" end_time="17:57:16" />
		</activity>

	</facility>

<!-- ====================================================================== -->

	<facility id="1004" x="1761.0" y="3161.0">
		<activity type="shop">
			<opentime day="wkday" start_time="06:00:00" end_time="18:41:20" />
		</activity>

	</facility>

<!-- ====================================================================== -->

	<facility id="1005" x="1131.0" y="3729.0">
		<activity type="home">
		</activity>

	</facility>

<!-- ====================================================================== -->

	<facility id="1006" x="4259.0" y="1215.0">
		<activity type="work">
			<opentime day="wkday" start_time="06:00:00" end_time="17:48:25" />
		</activity>

	</facility>

<!-- ====================================================================== -->

	<facility id="1007" x="888.0" y="3703.0">
		<activity type="home">
		</activity>

	</facility>

<!-- ====================================================================== -->

	<facility id="1008" x="3946.0" y="674.0">
		<activity type="work">
			<opentime day="wkday" start_time="06:00:00" end_time="17:19:12" />
		</activity>

	</facility>

<!-- ====================================================================== -->

	<facility id="1009" x="584.0" y="3842.0">
		<activity type="home">
		</activity>

	</facility>

<!-- ====================================================================== -->

	<facility id="101" x="3731.0" y="1262.0">
		<activity type="shop">
			<opentime day="wkday" start_time="06:00:00" end_time="17:31:27" />
		</activity>

	</facility>

<!-- ====================================================================== -->

	<facility id="1010" x="4409.0" y="689.0">
		<activity type="work">
			<opentime day="wkday" start_time="06:00:00" end_time="17:55:50" />
		</activity>

	</facility>

<!-- ====================================================================== -->

	<facility id="1011" x="890.0" y="3931.0">
		<activity type="home">
		</activity>

	</facility>

<!-- ====================================================================== -->

	<facility id="1012" x="3934.0" y="1199.0">
		<activity type="work">
			<opentime day="wkday" start_time="06:00:00" end_time="17:51:13" />
		</activity>

	</facility>

<!-- ====================================================================== -->

	<facility id="1013" x="4135.0" y="1154.0">
		<activity type="shop">
			<opentime day="wkday" start_time="06:00:00" end_time="18:17:45" />
		</activity>

	</facility>

<!-- ====================================================================== -->

	<facility id="1014" x="1037.0" y="4244.0">
		<activity type="home">
		</activity>

	</facility>

<!-- ====================================================================== -->

	<facility id="1015" x="1589.0" y="2916.0">
		<activity type="work">
			<opentime day="wkday" start_time="06:00:00" end_time="17:22:39" />
		</activity>

	</facility>

<!-- ====================================================================== -->

	<facility id="1016" x="2003.0" y="3063.0">
		<activity type="shop">
			<opentime day="wkday" start_time="06:00:00" end_time="18:01:44" />
		</activity>

	</facility>

<!-- ====================================================================== -->

	<facility id="1017" x="1131.0" y="3981.0">
		<activity type="home">
		</activity>

	</facility>

<!-- ====================================================================== -->

	<facility id="1018" x="4084.0" y="837.0">
		<activity type="work">
			<opentime day="wkday" start_time="06:00:00" end_time="17:23:33" />
		</activity>

	</facility>

<!-- ====================================================================== -->

	<facility id="1019" x="797.0" y="4139.0">
		<activity type="home">
		</activity>

	</facility>

<!-- ====================================================================== -->

	<facility id="102" x="792.0" y="1020.0">
		<activity type="home">
		</activity>

	</facility>

<!-- ====================================================================== -->

	<facility id="1020" x="2439.0" y="3333.0">
		<activity type="work">
			<opentime day="wkday" start_time="06:00:00" end_time="17:33:46" />
		</activity>

	</facility>

<!-- ====================================================================== -->

	<facility id="1021" x="1400.0" y="878.0">
		<activity type="home">
		</activity>

	</facility>

<!-- ====================================================================== -->

	<facility id="1022" x="4119.0" y="912.0">
		<activity type="work">
			<opentime day="wkday" start_time="06:00:00" end_time="17:55:52" />
		</activity>

	</facility>

<!-- ====================================================================== -->

	<facility id="1023" x="1070.0" y="4083.0">
		<activity type="home">
		</activity>

	</facility>

<!-- ====================================================================== -->

	<facility id="1024" x="4384.0" y="648.0">
		<activity type="work">
			<opentime day="wkday" start_time="06:00:00" end_time="17:08:12" />
		</activity>

	</facility>

<!-- ====================================================================== -->

	<facility id="1025" x="1129.0" y="3971.0">
		<activity type="home">
		</activity>

	</facility>

<!-- ====================================================================== -->

	<facility id="1026" x="4099.0" y="831.0">
		<activity type="work">
			<opentime day="wkday" start_time="06:00:00" end_time="17:39:06" />
		</activity>

	</facility>

<!-- ====================================================================== -->

	<facility id="1027" x="592.0" y="4421.0">
		<activity type="home">
		</activity>

	</facility>

<!-- ====================================================================== -->

	<facility id="1028" x="1786.0" y="3117.0">
		<activity type="work">
			<opentime day="wkday" start_time="06:00:00" end_time="17:41:36" />
		</activity>

	</facility>

<!-- ====================================================================== -->

	<facility id="1029" x="1683.0" y="2800.0">
		<activity type="shop">
			<opentime day="wkday" start_time="06:00:00" end_time="18:01:12" />
		</activity>

	</facility>

<!-- ====================================================================== -->

	<facility id="103" x="1597.0" y="3105.0">
		<activity type="work">
			<opentime day="wkday" start_time="06:00:00" end_time="17:40:05" />
		</activity>

	</facility>

<!-- ====================================================================== -->

	<facility id="1030" x="924.0" y="4024.0">
		<activity type="home">
		</activity>

	</facility>

<!-- ====================================================================== -->

	<facility id="1031" x="1559.0" y="3436.0">
		<activity type="work">
			<opentime day="wkday" start_time="06:00:00" end_time="17:51:28" />
		</activity>

	</facility>

<!-- ====================================================================== -->

	<facility id="1032" x="655.0" y="3588.0">
		<activity type="home">
		</activity>

	</facility>

<!-- ====================================================================== -->

	<facility id="1033" x="1686.0" y="2575.0">
		<activity type="work">
			<opentime day="wkday" start_time="06:00:00" end_time="17:30:42" />
		</activity>

	</facility>

<!-- ====================================================================== -->

	<facility id="1034" x="4308.0" y="554.0">
		<activity type="shop">
			<opentime day="wkday" start_time="06:00:00" end_time="17:40:14" />
		</activity>

	</facility>

<!-- ====================================================================== -->

	<facility id="1035" x="1143.0" y="3610.0">
		<activity type="home">
		</activity>

	</facility>

<!-- ====================================================================== -->

	<facility id="1036" x="4024.0" y="1043.0">
		<activity type="work">
			<opentime day="wkday" start_time="06:00:00" end_time="17:21:27" />
		</activity>

	</facility>

<!-- ====================================================================== -->

	<facility id="1037" x="1252.0" y="3577.0">
		<activity type="home">
		</activity>

	</facility>

<!-- ====================================================================== -->

	<facility id="1038" x="4118.0" y="843.0">
		<activity type="work">
			<opentime day="wkday" start_time="06:00:00" end_time="17:22:49" />
		</activity>

	</facility>

<!-- ====================================================================== -->

	<facility id="1039" x="2096.0" y="3002.0">
		<activity type="shop">
			<opentime day="wkday" start_time="06:00:00" end_time="18:03:17" />
		</activity>

	</facility>

<!-- ====================================================================== -->

	<facility id="104" x="700.0" y="633.0">
		<activity type="home">
		</activity>

	</facility>

<!-- ====================================================================== -->

	<facility id="1040" x="741.0" y="3727.0">
		<activity type="home">
		</activity>

	</facility>

<!-- ====================================================================== -->

	<facility id="1041" x="2401.0" y="2681.0">
		<activity type="work">
			<opentime day="wkday" start_time="06:00:00" end_time="17:41:02" />
		</activity>

	</facility>

<!-- ====================================================================== -->

	<facility id="1042" x="560.0" y="4150.0">
		<activity type="home">
		</activity>

	</facility>

<!-- ====================================================================== -->

	<facility id="1043" x="1742.0" y="2710.0">
		<activity type="work">
			<opentime day="wkday" start_time="06:00:00" end_time="17:35:51" />
		</activity>

	</facility>

<!-- ====================================================================== -->

	<facility id="1044" x="1608.0" y="3048.0">
		<activity type="shop">
			<opentime day="wkday" start_time="06:00:00" end_time="18:21:54" />
		</activity>

	</facility>

<!-- ====================================================================== -->

	<facility id="1045" x="1034.0" y="3975.0">
		<activity type="home">
		</activity>

	</facility>

<!-- ====================================================================== -->

	<facility id="1046" x="3792.0" y="669.0">
		<activity type="work">
			<opentime day="wkday" start_time="06:00:00" end_time="17:51:06" />
		</activity>

	</facility>

<!-- ====================================================================== -->

	<facility id="1047" x="991.0" y="667.0">
		<activity type="home">
		</activity>

	</facility>

<!-- ====================================================================== -->

	<facility id="1048" x="1765.0" y="3274.0">
		<activity type="work">
			<opentime day="wkday" start_time="06:00:00" end_time="17:55:36" />
		</activity>

	</facility>

<!-- ====================================================================== -->

	<facility id="1049" x="4287.0" y="803.0">
		<activity type="shop">
			<opentime day="wkday" start_time="06:00:00" end_time="18:14:40" />
		</activity>

	</facility>

<!-- ====================================================================== -->

	<facility id="105" x="2169.0" y="2940.0">
		<activity type="work">
			<opentime day="wkday" start_time="06:00:00" end_time="17:13:42" />
		</activity>

	</facility>

<!-- ====================================================================== -->

	<facility id="1050" x="808.0" y="3936.0">
		<activity type="home">
		</activity>

	</facility>

<!-- ====================================================================== -->

	<facility id="1051" x="1937.0" y="2928.0">
		<activity type="work">
			<opentime day="wkday" start_time="06:00:00" end_time="17:53:17" />
		</activity>

	</facility>

<!-- ====================================================================== -->

	<facility id="1052" x="1375.0" y="3957.0">
		<activity type="home">
		</activity>

	</facility>

<!-- ====================================================================== -->

	<facility id="1053" x="2365.0" y="2797.0">
		<activity type="work">
			<opentime day="wkday" start_time="06:00:00" end_time="17:45:33" />
		</activity>

	</facility>

<!-- ====================================================================== -->

	<facility id="1054" x="4308.0" y="731.0">
		<activity type="shop">
			<opentime day="wkday" start_time="06:00:00" end_time="18:25:50" />
		</activity>

	</facility>

<!-- ====================================================================== -->

	<facility id="1055" x="1410.0" y="3895.0">
		<activity type="home">
		</activity>

	</facility>

<!-- ====================================================================== -->

	<facility id="1056" x="1645.0" y="2626.0">
		<activity type="work">
			<opentime day="wkday" start_time="06:00:00" end_time="17:50:48" />
		</activity>

	</facility>

<!-- ====================================================================== -->

	<facility id="1057" x="1336.0" y="4393.0">
		<activity type="home">
		</activity>

	</facility>

<!-- ====================================================================== -->

	<facility id="1058" x="3783.0" y="1246.0">
		<activity type="work">
			<opentime day="wkday" start_time="06:00:00" end_time="17:58:58" />
		</activity>

	</facility>

<!-- ====================================================================== -->

	<facility id="1059" x="3988.0" y="948.0">
		<activity type="shop">
			<opentime day="wkday" start_time="06:00:00" end_time="18:26:41" />
		</activity>

	</facility>

<!-- ====================================================================== -->

	<facility id="106" x="4113.0" y="1257.0">
		<activity type="shop">
			<opentime day="wkday" start_time="06:00:00" end_time="17:48:42" />
		</activity>

	</facility>

<!-- ====================================================================== -->

	<facility id="1060" x="1300.0" y="4005.0">
		<activity type="home">
		</activity>

	</facility>

<!-- ====================================================================== -->

	<facility id="1061" x="2233.0" y="2682.0">
		<activity type="work">
			<opentime day="wkday" start_time="06:00:00" end_time="17:42:08" />
		</activity>

	</facility>

<!-- ====================================================================== -->

	<facility id="1062" x="659.0" y="4240.0">
		<activity type="home">
		</activity>

	</facility>

<!-- ====================================================================== -->

	<facility id="1063" x="1857.0" y="3327.0">
		<activity type="work">
			<opentime day="wkday" start_time="06:00:00" end_time="17:50:11" />
		</activity>

	</facility>

<!-- ====================================================================== -->

	<facility id="1064" x="783.0" y="3708.0">
		<activity type="home">
		</activity>

	</facility>

<!-- ====================================================================== -->

	<facility id="1065" x="3563.0" y="1301.0">
		<activity type="work">
			<opentime day="wkday" start_time="06:00:00" end_time="17:58:55" />
		</activity>

	</facility>

<!-- ====================================================================== -->

	<facility id="1066" x="1284.0" y="4249.0">
		<activity type="home">
		</activity>

	</facility>

<!-- ====================================================================== -->

	<facility id="1067" x="3919.0" y="898.0">
		<activity type="work">
			<opentime day="wkday" start_time="06:00:00" end_time="17:20:42" />
		</activity>

	</facility>

<!-- ====================================================================== -->

	<facility id="1068" x="1381.0" y="4087.0">
		<activity type="home">
		</activity>

	</facility>

<!-- ====================================================================== -->

	<facility id="1069" x="1931.0" y="3181.0">
		<activity type="work">
			<opentime day="wkday" start_time="06:00:00" end_time="17:11:02" />
		</activity>

	</facility>

<!-- ====================================================================== -->

	<facility id="107" x="1341.0" y="1146.0">
		<activity type="home">
		</activity>

	</facility>

<!-- ====================================================================== -->

	<facility id="1070" x="2279.0" y="2880.0">
		<activity type="shop">
			<opentime day="wkday" start_time="06:00:00" end_time="17:34:29" />
		</activity>

	</facility>

<!-- ====================================================================== -->

	<facility id="1071" x="1391.0" y="3808.0">
		<activity type="home">
		</activity>

	</facility>

<!-- ====================================================================== -->

	<facility id="1072" x="1899.0" y="2771.0">
		<activity type="work">
			<opentime day="wkday" start_time="06:00:00" end_time="17:10:12" />
		</activity>

	</facility>

<!-- ====================================================================== -->

	<facility id="1073" x="4084.0" y="1121.0">
		<activity type="shop">
			<opentime day="wkday" start_time="06:00:00" end_time="18:01:05" />
		</activity>

	</facility>

<!-- ====================================================================== -->

	<facility id="1074" x="1405.0" y="909.0">
		<activity type="home">
		</activity>

	</facility>

<!-- ====================================================================== -->

	<facility id="1075" x="4187.0" y="1105.0">
		<activity type="work">
			<opentime day="wkday" start_time="06:00:00" end_time="17:43:30" />
		</activity>

	</facility>

<!-- ====================================================================== -->

	<facility id="1076" x="2249.0" y="2971.0">
		<activity type="shop">
			<opentime day="wkday" start_time="06:00:00" end_time="17:53:28" />
		</activity>

	</facility>

<!-- ====================================================================== -->

	<facility id="1077" x="1268.0" y="4438.0">
		<activity type="home">
		</activity>

	</facility>

<!-- ====================================================================== -->

	<facility id="1078" x="4035.0" y="832.0">
		<activity type="work">
			<opentime day="wkday" start_time="06:00:00" end_time="17:25:16" />
		</activity>

	</facility>

<!-- ====================================================================== -->

	<facility id="1079" x="1166.0" y="4280.0">
		<activity type="home">
		</activity>

	</facility>

<!-- ====================================================================== -->

	<facility id="108" x="1766.0" y="2983.0">
		<activity type="work">
			<opentime day="wkday" start_time="06:00:00" end_time="17:52:56" />
		</activity>

	</facility>

<!-- ====================================================================== -->

	<facility id="1080" x="4262.0" y="1077.0">
		<activity type="work">
			<opentime day="wkday" start_time="06:00:00" end_time="17:18:06" />
		</activity>

	</facility>

<!-- ====================================================================== -->

	<facility id="1081" x="1004.0" y="4049.0">
		<activity type="home">
		</activity>

	</facility>

<!-- ====================================================================== -->

	<facility id="1082" x="4122.0" y="1369.0">
		<activity type="work">
			<opentime day="wkday" start_time="06:00:00" end_time="17:14:54" />
		</activity>

	</facility>

<!-- ====================================================================== -->

	<facility id="1083" x="571.0" y="4393.0">
		<activity type="home">
		</activity>

	</facility>

<!-- ====================================================================== -->

	<facility id="1084" x="2397.0" y="2628.0">
		<activity type="work">
			<opentime day="wkday" start_time="06:00:00" end_time="17:13:41" />
		</activity>

	</facility>

<!-- ====================================================================== -->

	<facility id="1085" x="960.0" y="3749.0">
		<activity type="home">
		</activity>

	</facility>

<!-- ====================================================================== -->

	<facility id="1086" x="2086.0" y="2895.0">
		<activity type="work">
			<opentime day="wkday" start_time="06:00:00" end_time="17:23:18" />
		</activity>

	</facility>

<!-- ====================================================================== -->

	<facility id="1087" x="862.0" y="3817.0">
		<activity type="home">
		</activity>

	</facility>

<!-- ====================================================================== -->

	<facility id="1088" x="4393.0" y="589.0">
		<activity type="work">
			<opentime day="wkday" start_time="06:00:00" end_time="17:13:18" />
		</activity>

	</facility>

<!-- ====================================================================== -->

	<facility id="1089" x="651.0" y="3812.0">
		<activity type="home">
		</activity>

	</facility>

<!-- ====================================================================== -->

	<facility id="109" x="1239.0" y="908.0">
		<activity type="home">
		</activity>

	</facility>

<!-- ====================================================================== -->

	<facility id="1090" x="3664.0" y="989.0">
		<activity type="work">
			<opentime day="wkday" start_time="06:00:00" end_time="17:31:15" />
		</activity>

	</facility>

<!-- ====================================================================== -->

	<facility id="1091" x="1675.0" y="3159.0">
		<activity type="shop">
			<opentime day="wkday" start_time="06:00:00" end_time="18:25:25" />
		</activity>

	</facility>

<!-- ====================================================================== -->

	<facility id="1092" x="1332.0" y="3976.0">
		<activity type="home">
		</activity>

	</facility>

<!-- ====================================================================== -->

	<facility id="1093" x="4408.0" y="855.0">
		<activity type="work">
			<opentime day="wkday" start_time="06:00:00" end_time="17:52:32" />
		</activity>

	</facility>

<!-- ====================================================================== -->

	<facility id="1094" x="2372.0" y="2784.0">
		<activity type="shop">
			<opentime day="wkday" start_time="06:00:00" end_time="18:31:41" />
		</activity>

	</facility>

<!-- ====================================================================== -->

	<facility id="1095" x="900.0" y="4019.0">
		<activity type="home">
		</activity>

	</facility>

<!-- ====================================================================== -->

	<facility id="1096" x="4242.0" y="1331.0">
		<activity type="work">
			<opentime day="wkday" start_time="06:00:00" end_time="17:44:25" />
		</activity>

	</facility>

<!-- ====================================================================== -->

	<facility id="1097" x="1823.0" y="2920.0">
		<activity type="shop">
			<opentime day="wkday" start_time="06:00:00" end_time="17:59:39" />
		</activity>

	</facility>

<!-- ====================================================================== -->

	<facility id="1098" x="1419.0" y="4257.0">
		<activity type="home">
		</activity>

	</facility>

<!-- ====================================================================== -->

	<facility id="1099" x="3630.0" y="779.0">
		<activity type="work">
			<opentime day="wkday" start_time="06:00:00" end_time="17:07:12" />
		</activity>

	</facility>

<!-- ====================================================================== -->

	<facility id="11" x="3840.0" y="1205.0">
		<activity type="shop">
			<opentime day="wkday" start_time="06:00:00" end_time="18:25:10" />
		</activity>

	</facility>

<!-- ====================================================================== -->

	<facility id="110" x="2151.0" y="3006.0">
		<activity type="work">
			<opentime day="wkday" start_time="06:00:00" end_time="17:16:55" />
		</activity>

	</facility>

<!-- ====================================================================== -->

	<facility id="1100" x="1909.0" y="3001.0">
		<activity type="shop">
			<opentime day="wkday" start_time="06:00:00" end_time="18:03:53" />
		</activity>

	</facility>

<!-- ====================================================================== -->

	<facility id="1101" x="966.0" y="624.0">
		<activity type="home">
		</activity>

	</facility>

<!-- ====================================================================== -->

	<facility id="1102" x="2403.0" y="3191.0">
		<activity type="work">
			<opentime day="wkday" start_time="06:00:00" end_time="17:05:11" />
		</activity>

	</facility>

<!-- ====================================================================== -->

	<facility id="1103" x="557.0" y="559.0">
		<activity type="home">
		</activity>

	</facility>

<!-- ====================================================================== -->

	<facility id="1104" x="4251.0" y="1380.0">
		<activity type="work">
			<opentime day="wkday" start_time="06:00:00" end_time="17:56:09" />
		</activity>

	</facility>

<!-- ====================================================================== -->

	<facility id="1105" x="1193.0" y="3955.0">
		<activity type="home">
		</activity>

	</facility>

<!-- ====================================================================== -->

	<facility id="1106" x="1987.0" y="3110.0">
		<activity type="work">
			<opentime day="wkday" start_time="06:00:00" end_time="17:57:40" />
		</activity>

	</facility>

<!-- ====================================================================== -->

	<facility id="1107" x="1125.0" y="3633.0">
		<activity type="home">
		</activity>

	</facility>

<!-- ====================================================================== -->

	<facility id="1108" x="1684.0" y="3292.0">
		<activity type="work">
			<opentime day="wkday" start_time="06:00:00" end_time="17:04:45" />
		</activity>

	</facility>

<!-- ====================================================================== -->

	<facility id="1109" x="4341.0" y="1120.0">
		<activity type="shop">
			<opentime day="wkday" start_time="06:00:00" end_time="17:42:40" />
		</activity>

	</facility>

<!-- ====================================================================== -->

	<facility id="111" x="4327.0" y="1293.0">
		<activity type="shop">
			<opentime day="wkday" start_time="06:00:00" end_time="17:58:54" />
		</activity>

	</facility>

<!-- ====================================================================== -->

	<facility id="1110" x="1350.0" y="4131.0">
		<activity type="home">
		</activity>

	</facility>

<!-- ====================================================================== -->

	<facility id="1111" x="2208.0" y="3136.0">
		<activity type="work">
			<opentime day="wkday" start_time="06:00:00" end_time="17:38:56" />
		</activity>

	</facility>

<!-- ====================================================================== -->

	<facility id="1112" x="3599.0" y="971.0">
		<activity type="shop">
			<opentime day="wkday" start_time="06:00:00" end_time="18:08:35" />
		</activity>

	</facility>

<!-- ====================================================================== -->

	<facility id="1113" x="1018.0" y="4226.0">
		<activity type="home">
		</activity>

	</facility>

<!-- ====================================================================== -->

	<facility id="1114" x="1614.0" y="3321.0">
		<activity type="work">
			<opentime day="wkday" start_time="06:00:00" end_time="17:07:27" />
		</activity>

	</facility>

<!-- ====================================================================== -->

	<facility id="1115" x="1274.0" y="4231.0">
		<activity type="home">
		</activity>

	</facility>

<!-- ====================================================================== -->

	<facility id="1116" x="2251.0" y="2860.0">
		<activity type="work">
			<opentime day="wkday" start_time="06:00:00" end_time="17:14:42" />
		</activity>

	</facility>

<!-- ====================================================================== -->

	<facility id="1117" x="3893.0" y="790.0">
		<activity type="shop">
			<opentime day="wkday" start_time="06:00:00" end_time="18:11:06" />
		</activity>

	</facility>

<!-- ====================================================================== -->

	<facility id="1118" x="1437.0" y="3724.0">
		<activity type="home">
		</activity>

	</facility>

<!-- ====================================================================== -->
