<?xml version="1.0" encoding="utf-8"?>
<!DOCTYPE population SYSTEM "http://www.matsim.org/files/dtd/population_v5.dtd">

<population>

<!-- ====================================================================== -->

	<person id="1" employed="no">
		<plan selected="yes">
			<act type="home" link="i(1,9)R" end_time="08:00:00" />
			<leg mode="car">
				<route type="links">i(1,9)R j(0,9)R j(0,8)R j(0,7)R j(0,6)R j(0,5)R j(0,4)R j(0,3)R j(0,2)R j(0,1)R i(1,0)</route>
			</leg>
			<act type="work" link="i(1,0)" max_dur="08:00:00" />
			<leg mode="car">
				<route type="links">i(1,0) j(1,1) j(1,2) j(1,3) j(1,4) j(1,5) j(1,6) j(1,7) j(1,8) j(1,9) i(1,9)R</route>
			</leg>
			<act type="home" link="i(1,9)R" />
		</plan>

	</person>

<!-- ====================================================================== -->

	<person id="10" employed="no">
		<plan selected="yes">
			<act type="home" link="i(1,0)" end_time="08:00:00" />
			<leg mode="car">
				<route type="links">i(1,0) j(1,1) j(1,2) j(1,3) j(1,4) j(1,5) j(1,6) j(1,7) j(1,8) j(1,9) i(1,9)R</route>
			</leg>
			<act type="work" link="i(1,9)R" max_dur="08:00:00" />
			<leg mode="car">
				<route type="links">i(1,9)R j(0,9)R j(0,8)R j(0,7)R j(0,6)R j(0,5)R j(0,4)R j(0,3)R j(0,2)R j(0,1)R i(1,0)</route>
			</leg>
			<act type="home" link="i(1,0)" />
		</plan>

	</person>

<!-- ====================================================================== -->

	<person id="100" employed="no">
		<plan selected="yes">
			<act type="home" link="i(6,0)" end_time="08:00:00" />
			<leg mode="car">
				<route type="links">i(6,0) i(7,0) j(7,1) j(7,2) j(7,3) j(7,4) j(7,5) j(7,6) j(7,7) j(7,8) j(7,9) i(7,9)R i(6,9)R</route>
			</leg>
			<act type="work" link="i(6,9)R" max_dur="08:00:00" />
			<leg mode="car">
				<route type="links">i(6,9)R i(5,9)R j(4,9)R j(4,8)R j(4,7)R j(4,6)R j(4,5)R j(4,4)R j(4,3)R j(4,2)R j(4,1)R i(5,0) i(6,0)</route>
			</leg>
			<act type="home" link="i(6,0)" />
		</plan>

	</person>

<!-- ====================================================================== -->

	<person id="101" employed="no">
		<plan selected="yes">
			<act type="home" link="i(6,0)" end_time="08:00:00" />
			<leg mode="car">
				<route type="links">i(6,0) i(7,0) j(7,1) j(7,2) j(7,3) j(7,4) j(7,5) j(7,6) j(7,7) j(7,8) j(7,9) i(7,9)R i(6,9)R</route>
			</leg>
			<act type="work" link="i(6,9)R" max_dur="08:00:00" />
			<leg mode="car">
				<route type="links">i(6,9)R i(5,9)R j(4,9)R j(4,8)R j(4,7)R j(4,6)R j(4,5)R j(4,4)R j(4,3)R j(4,2)R j(4,1)R i(5,0) i(6,0)</route>
			</leg>
			<act type="home" link="i(6,0)" />
		</plan>

	</person>

<!-- ====================================================================== -->

	<person id="102" employed="no">
		<plan selected="yes">
			<act type="home" link="i(6,0)" end_time="08:00:00" />
			<leg mode="car">
				<route type="links">i(6,0) i(7,0) j(7,1) j(7,2) j(7,3) j(7,4) j(7,5) j(7,6) j(7,7) j(7,8) j(7,9) i(7,9)R i(6,9)R</route>
			</leg>
			<act type="work" link="i(6,9)R" max_dur="08:00:00" />
			<leg mode="car">
				<route type="links">i(6,9)R i(5,9)R j(4,9)R j(4,8)R j(4,7)R j(4,6)R j(4,5)R j(4,4)R j(4,3)R j(4,2)R j(4,1)R i(5,0) i(6,0)</route>
			</leg>
			<act type="home" link="i(6,0)" />
		</plan>

	</person>

<!-- ====================================================================== -->

	<person id="103" employed="no">
		<plan selected="yes">
			<act type="home" link="i(6,0)" end_time="08:00:00" />
			<leg mode="car">
				<route type="links">i(6,0) i(7,0) j(7,1) j(7,2) j(7,3) j(7,4) j(7,5) j(7,6) j(7,7) j(7,8) j(7,9) i(7,9)R i(6,9)R</route>
			</leg>
			<act type="work" link="i(6,9)R" max_dur="08:00:00" />
			<leg mode="car">
				<route type="links">i(6,9)R i(5,9)R j(4,9)R j(4,8)R j(4,7)R j(4,6)R j(4,5)R j(4,4)R j(4,3)R j(4,2)R j(4,1)R i(5,0) i(6,0)</route>
			</leg>
			<act type="home" link="i(6,0)" />
		</plan>

	</person>

<!-- ====================================================================== -->

	<person id="104" employed="no">
		<plan selected="yes">
			<act type="home" link="i(6,0)" end_time="08:00:00" />
			<leg mode="car">
				<route type="links">i(6,0) i(7,0) j(7,1) j(7,2) j(7,3) j(7,4) j(7,5) j(7,6) j(7,7) j(7,8) j(7,9) i(7,9)R i(6,9)R</route>
			</leg>
			<act type="work" link="i(6,9)R" max_dur="08:00:00" />
			<leg mode="car">
				<route type="links">i(6,9)R i(5,9)R j(4,9)R j(4,8)R j(4,7)R j(4,6)R j(4,5)R j(4,4)R j(4,3)R j(4,2)R j(4,1)R i(5,0) i(6,0)</route>
			</leg>
			<act type="home" link="i(6,0)" />
		</plan>

	</person>

<!-- ====================================================================== -->

	<person id="105" employed="no">
		<plan selected="yes">
			<act type="home" link="i(6,0)" end_time="08:00:00" />
			<leg mode="car">
				<route type="links">i(6,0) i(7,0) j(7,1) j(7,2) j(7,3) j(7,4) j(7,5) j(7,6) j(7,7) j(7,8) j(7,9) i(7,9)R i(6,9)R</route>
			</leg>
			<act type="work" link="i(6,9)R" max_dur="08:00:00" />
			<leg mode="car">
				<route type="links">i(6,9)R i(5,9)R j(4,9)R j(4,8)R j(4,7)R j(4,6)R j(4,5)R j(4,4)R j(4,3)R j(4,2)R j(4,1)R i(5,0) i(6,0)</route>
			</leg>
			<act type="home" link="i(6,0)" />
		</plan>

	</person>

<!-- ====================================================================== -->

	<person id="106" employed="no">
		<plan selected="yes">
			<act type="home" link="i(6,0)" end_time="08:00:00" />
			<leg mode="car">
				<route type="links">i(6,0) i(7,0) j(7,1) j(7,2) j(7,3) j(7,4) j(7,5) j(7,6) j(7,7) j(7,8) j(7,9) i(7,9)R i(6,9)R</route>
			</leg>
			<act type="work" link="i(6,9)R" max_dur="08:00:00" />
			<leg mode="car">
				<route type="links">i(6,9)R i(5,9)R j(4,9)R j(4,8)R j(4,7)R j(4,6)R j(4,5)R j(4,4)R j(4,3)R j(4,2)R j(4,1)R i(5,0) i(6,0)</route>
			</leg>
			<act type="home" link="i(6,0)" />
		</plan>

	</person>

<!-- ====================================================================== -->

	<person id="107" employed="no">
		<plan selected="yes">
			<act type="home" link="i(6,0)" end_time="08:00:00" />
			<leg mode="car">
				<route type="links">i(6,0) i(7,0) j(7,1) j(7,2) j(7,3) j(7,4) j(7,5) j(7,6) j(7,7) j(7,8) j(7,9) i(7,9)R i(6,9)R</route>
			</leg>
			<act type="work" link="i(6,9)R" max_dur="08:00:00" />
			<leg mode="car">
				<route type="links">i(6,9)R i(5,9)R j(4,9)R j(4,8)R j(4,7)R j(4,6)R j(4,5)R j(4,4)R j(4,3)R j(4,2)R j(4,1)R i(5,0) i(6,0)</route>
			</leg>
			<act type="home" link="i(6,0)" />
		</plan>

	</person>

<!-- ====================================================================== -->

	<person id="108" employed="no">
		<plan selected="yes">
			<act type="home" link="i(6,0)" end_time="08:00:00" />
			<leg mode="car">
				<route type="links">i(6,0) i(7,0) j(7,1) j(7,2) j(7,3) j(7,4) j(7,5) j(7,6) j(7,7) j(7,8) j(7,9) i(7,9)R i(6,9)R</route>
			</leg>
			<act type="work" link="i(6,9)R" max_dur="08:00:00" />
			<leg mode="car">
				<route type="links">i(6,9)R i(5,9)R j(4,9)R j(4,8)R j(4,7)R j(4,6)R j(4,5)R j(4,4)R j(4,3)R j(4,2)R j(4,1)R i(5,0) i(6,0)</route>
			</leg>
			<act type="home" link="i(6,0)" />
		</plan>

	</person>

<!-- ====================================================================== -->

	<person id="109" employed="no">
		<plan selected="yes">
			<act type="home" link="i(7,9)R" end_time="08:00:00" />
			<leg mode="car">
				<route type="links">i(7,9)R j(6,9)R j(6,8)R j(6,7)R j(6,6)R j(6,5)R j(6,4)R j(6,3)R j(6,2)R j(6,1)R i(7,0)</route>
			</leg>
			<act type="work" link="i(7,0)" max_dur="08:00:00" />
			<leg mode="car">
				<route type="links">i(7,0) j(7,1) j(7,2) j(7,3) j(7,4) j(7,5) j(7,6) j(7,7) j(7,8) j(7,9) i(7,9)R</route>
			</leg>
			<act type="home" link="i(7,9)R" />
		</plan>

	</person>

<!-- ====================================================================== -->

	<person id="11" employed="no">
		<plan selected="yes">
			<act type="home" link="i(1,0)" end_time="08:00:00" />
			<leg mode="car">
				<route type="links">i(1,0) j(1,1) j(1,2) j(1,3) j(1,4) j(1,5) j(1,6) j(1,7) j(1,8) j(1,9) i(1,9)R</route>
			</leg>
			<act type="work" link="i(1,9)R" max_dur="08:00:00" />
			<leg mode="car">
				<route type="links">i(1,9)R j(0,9)R j(0,8)R j(0,7)R j(0,6)R j(0,5)R j(0,4)R j(0,3)R j(0,2)R j(0,1)R i(1,0)</route>
			</leg>
			<act type="home" link="i(1,0)" />
		</plan>

	</person>

<!-- ====================================================================== -->

	<person id="110" employed="no">
		<plan selected="yes">
			<act type="home" link="i(7,9)R" end_time="08:00:00" />
			<leg mode="car">
				<route type="links">i(7,9)R j(6,9)R j(6,8)R j(6,7)R j(6,6)R j(6,5)R j(6,4)R j(6,3)R j(6,2)R j(6,1)R i(7,0)</route>
			</leg>
			<act type="work" link="i(7,0)" max_dur="08:00:00" />
			<leg mode="car">
				<route type="links">i(7,0) j(7,1) j(7,2) j(7,3) j(7,4) j(7,5) j(7,6) j(7,7) j(7,8) j(7,9) i(7,9)R</route>
			</leg>
			<act type="home" link="i(7,9)R" />
		</plan>

	</person>

<!-- ====================================================================== -->

	<person id="111" employed="no">
		<plan selected="yes">
			<act type="home" link="i(7,9)R" end_time="08:00:00" />
			<leg mode="car">
				<route type="links">i(7,9)R j(6,9)R j(6,8)R j(6,7)R j(6,6)R j(6,5)R j(6,4)R j(6,3)R j(6,2)R j(6,1)R i(7,0)</route>
			</leg>
			<act type="work" link="i(7,0)" max_dur="08:00:00" />
			<leg mode="car">
				<route type="links">i(7,0) j(7,1) j(7,2) j(7,3) j(7,4) j(7,5) j(7,6) j(7,7) j(7,8) j(7,9) i(7,9)R</route>
			</leg>
			<act type="home" link="i(7,9)R" />
		</plan>

	</person>

<!-- ====================================================================== -->

	<person id="112" employed="no">
		<plan selected="yes">
			<act type="home" link="i(7,9)R" end_time="08:00:00" />
			<leg mode="car">
				<route type="links">i(7,9)R j(6,9)R j(6,8)R j(6,7)R j(6,6)R j(6,5)R j(6,4)R j(6,3)R j(6,2)R j(6,1)R i(7,0)</route>
			</leg>
			<act type="work" link="i(7,0)" max_dur="08:00:00" />
			<leg mode="car">
				<route type="links">i(7,0) j(7,1) j(7,2) j(7,3) j(7,4) j(7,5) j(7,6) j(7,7) j(7,8) j(7,9) i(7,9)R</route>
			</leg>
			<act type="home" link="i(7,9)R" />
		</plan>

	</person>

<!-- ====================================================================== -->

	<person id="113" employed="no">
		<plan selected="yes">
			<act type="home" link="i(7,9)R" end_time="08:00:00" />
			<leg mode="car">
				<route type="links">i(7,9)R j(6,9)R j(6,8)R j(6,7)R j(6,6)R j(6,5)R j(6,4)R j(6,3)R j(6,2)R j(6,1)R i(7,0)</route>
			</leg>
			<act type="work" link="i(7,0)" max_dur="08:00:00" />
			<leg mode="car">
				<route type="links">i(7,0) j(7,1) j(7,2) j(7,3) j(7,4) j(7,5) j(7,6) j(7,7) j(7,8) j(7,9) i(7,9)R</route>
			</leg>
			<act type="home" link="i(7,9)R" />
		</plan>

	</person>

<!-- ====================================================================== -->

	<person id="114" employed="no">
		<plan selected="yes">
			<act type="home" link="i(7,9)R" end_time="08:00:00" />
			<leg mode="car">
				<route type="links">i(7,9)R j(6,9)R j(6,8)R j(6,7)R j(6,6)R j(6,5)R j(6,4)R j(6,3)R j(6,2)R j(6,1)R i(7,0)</route>
			</leg>
			<act type="work" link="i(7,0)" max_dur="08:00:00" />
			<leg mode="car">
				<route type="links">i(7,0) j(7,1) j(7,2) j(7,3) j(7,4) j(7,5) j(7,6) j(7,7) j(7,8) j(7,9) i(7,9)R</route>
			</leg>
			<act type="home" link="i(7,9)R" />
		</plan>

	</person>

<!-- ====================================================================== -->

	<person id="115" employed="no">
		<plan selected="yes">
			<act type="home" link="i(7,9)R" end_time="08:00:00" />
			<leg mode="car">
				<route type="links">i(7,9)R j(6,9)R j(6,8)R j(6,7)R j(6,6)R j(6,5)R j(6,4)R j(6,3)R j(6,2)R j(6,1)R i(7,0)</route>
			</leg>
			<act type="work" link="i(7,0)" max_dur="08:00:00" />
			<leg mode="car">
				<route type="links">i(7,0) j(7,1) j(7,2) j(7,3) j(7,4) j(7,5) j(7,6) j(7,7) j(7,8) j(7,9) i(7,9)R</route>
			</leg>
			<act type="home" link="i(7,9)R" />
		</plan>

	</person>

<!-- ====================================================================== -->

	<person id="116" employed="no">
		<plan selected="yes">
			<act type="home" link="i(7,9)R" end_time="08:00:00" />
			<leg mode="car">
				<route type="links">i(7,9)R j(6,9)R j(6,8)R j(6,7)R j(6,6)R j(6,5)R j(6,4)R j(6,3)R j(6,2)R j(6,1)R i(7,0)</route>
			</leg>
			<act type="work" link="i(7,0)" max_dur="08:00:00" />
			<leg mode="car">
				<route type="links">i(7,0) j(7,1) j(7,2) j(7,3) j(7,4) j(7,5) j(7,6) j(7,7) j(7,8) j(7,9) i(7,9)R</route>
			</leg>
			<act type="home" link="i(7,9)R" />
		</plan>

	</person>

<!-- ====================================================================== -->

	<person id="117" employed="no">
		<plan selected="yes">
			<act type="home" link="i(7,9)R" end_time="08:00:00" />
			<leg mode="car">
				<route type="links">i(7,9)R j(6,9)R j(6,8)R j(6,7)R j(6,6)R j(6,5)R j(6,4)R j(6,3)R j(6,2)R j(6,1)R i(7,0)</route>
			</leg>
			<act type="work" link="i(7,0)" max_dur="08:00:00" />
			<leg mode="car">
				<route type="links">i(7,0) j(7,1) j(7,2) j(7,3) j(7,4) j(7,5) j(7,6) j(7,7) j(7,8) j(7,9) i(7,9)R</route>
			</leg>
			<act type="home" link="i(7,9)R" />
		</plan>

	</person>

<!-- ====================================================================== -->

	<person id="118" employed="no">
		<plan selected="yes">
			<act type="home" link="i(7,0)" end_time="08:00:00" />
			<leg mode="car">
				<route type="links">i(7,0) j(7,1) j(7,2) j(7,3) j(7,4) j(7,5) j(7,6) j(7,7) j(7,8) j(7,9) i(7,9)R</route>
			</leg>
			<act type="work" link="i(7,9)R" max_dur="08:00:00" />
			<leg mode="car">
				<route type="links">i(7,9)R j(6,9)R j(6,8)R j(6,7)R j(6,6)R j(6,5)R j(6,4)R j(6,3)R j(6,2)R j(6,1)R i(7,0)</route>
			</leg>
			<act type="home" link="i(7,0)" />
		</plan>

	</person>

<!-- ====================================================================== -->

	<person id="119" employed="no">
		<plan selected="yes">
			<act type="home" link="i(7,0)" end_time="08:00:00" />
			<leg mode="car">
				<route type="links">i(7,0) j(7,1) j(7,2) j(7,3) j(7,4) j(7,5) j(7,6) j(7,7) j(7,8) j(7,9) i(7,9)R</route>
			</leg>
			<act type="work" link="i(7,9)R" max_dur="08:00:00" />
			<leg mode="car">
				<route type="links">i(7,9)R j(6,9)R j(6,8)R j(6,7)R j(6,6)R j(6,5)R j(6,4)R j(6,3)R j(6,2)R j(6,1)R i(7,0)</route>
			</leg>
			<act type="home" link="i(7,0)" />
		</plan>

	</person>

<!-- ====================================================================== -->

	<person id="12" employed="no">
		<plan selected="yes">
			<act type="home" link="i(1,0)" end_time="08:00:00" />
			<leg mode="car">
				<route type="links">i(1,0) j(1,1) j(1,2) j(1,3) j(1,4) j(1,5) j(1,6) j(1,7) j(1,8) j(1,9) i(1,9)R</route>
			</leg>
			<act type="work" link="i(1,9)R" max_dur="08:00:00" />
			<leg mode="car">
				<route type="links">i(1,9)R j(0,9)R j(0,8)R j(0,7)R j(0,6)R j(0,5)R j(0,4)R j(0,3)R j(0,2)R j(0,1)R i(1,0)</route>
			</leg>
			<act type="home" link="i(1,0)" />
		</plan>

	</person>

<!-- ====================================================================== -->

	<person id="120" employed="no">
		<plan selected="yes">
			<act type="home" link="i(7,0)" end_time="08:00:00" />
			<leg mode="car">
				<route type="links">i(7,0) j(7,1) j(7,2) j(7,3) j(7,4) j(7,5) j(7,6) j(7,7) j(7,8) j(7,9) i(7,9)R</route>
			</leg>
			<act type="work" link="i(7,9)R" max_dur="08:00:00" />
			<leg mode="car">
				<route type="links">i(7,9)R j(6,9)R j(6,8)R j(6,7)R j(6,6)R j(6,5)R j(6,4)R j(6,3)R j(6,2)R j(6,1)R i(7,0)</route>
			</leg>
			<act type="home" link="i(7,0)" />
		</plan>

	</person>

<!-- ====================================================================== -->

	<person id="121" employed="no">
		<plan selected="yes">
			<act type="home" link="i(7,0)" end_time="08:00:00" />
			<leg mode="car">
				<route type="links">i(7,0) j(7,1) j(7,2) j(7,3) j(7,4) j(7,5) j(7,6) j(7,7) j(7,8) j(7,9) i(7,9)R</route>
			</leg>
			<act type="work" link="i(7,9)R" max_dur="08:00:00" />
			<leg mode="car">
				<route type="links">i(7,9)R j(6,9)R j(6,8)R j(6,7)R j(6,6)R j(6,5)R j(6,4)R j(6,3)R j(6,2)R j(6,1)R i(7,0)</route>
			</leg>
			<act type="home" link="i(7,0)" />
		</plan>

	</person>

<!-- ====================================================================== -->

	<person id="122" employed="no">
		<plan selected="yes">
			<act type="home" link="i(7,0)" end_time="08:00:00" />
			<leg mode="car">
				<route type="links">i(7,0) j(7,1) j(7,2) j(7,3) j(7,4) j(7,5) j(7,6) j(7,7) j(7,8) j(7,9) i(7,9)R</route>
			</leg>
			<act type="work" link="i(7,9)R" max_dur="08:00:00" />
			<leg mode="car">
				<route type="links">i(7,9)R j(6,9)R j(6,8)R j(6,7)R j(6,6)R j(6,5)R j(6,4)R j(6,3)R j(6,2)R j(6,1)R i(7,0)</route>
			</leg>
			<act type="home" link="i(7,0)" />
		</plan>

	</person>

<!-- ====================================================================== -->

	<person id="123" employed="no">
		<plan selected="yes">
			<act type="home" link="i(7,0)" end_time="08:00:00" />
			<leg mode="car">
				<route type="links">i(7,0) j(7,1) j(7,2) j(7,3) j(7,4) j(7,5) j(7,6) j(7,7) j(7,8) j(7,9) i(7,9)R</route>
			</leg>
			<act type="work" link="i(7,9)R" max_dur="08:00:00" />
			<leg mode="car">
				<route type="links">i(7,9)R j(6,9)R j(6,8)R j(6,7)R j(6,6)R j(6,5)R j(6,4)R j(6,3)R j(6,2)R j(6,1)R i(7,0)</route>
			</leg>
			<act type="home" link="i(7,0)" />
		</plan>

	</person>

<!-- ====================================================================== -->

	<person id="124" employed="no">
		<plan selected="yes">
			<act type="home" link="i(7,0)" end_time="08:00:00" />
			<leg mode="car">
				<route type="links">i(7,0) j(7,1) j(7,2) j(7,3) j(7,4) j(7,5) j(7,6) j(7,7) j(7,8) j(7,9) i(7,9)R</route>
			</leg>
			<act type="work" link="i(7,9)R" max_dur="08:00:00" />
			<leg mode="car">
				<route type="links">i(7,9)R j(6,9)R j(6,8)R j(6,7)R j(6,6)R j(6,5)R j(6,4)R j(6,3)R j(6,2)R j(6,1)R i(7,0)</route>
			</leg>
			<act type="home" link="i(7,0)" />
		</plan>

	</person>

<!-- ====================================================================== -->

	<person id="125" employed="no">
		<plan selected="yes">
			<act type="home" link="i(7,0)" end_time="08:00:00" />
			<leg mode="car">
				<route type="links">i(7,0) j(7,1) j(7,2) j(7,3) j(7,4) j(7,5) j(7,6) j(7,7) j(7,8) j(7,9) i(7,9)R</route>
			</leg>
			<act type="work" link="i(7,9)R" max_dur="08:00:00" />
			<leg mode="car">
				<route type="links">i(7,9)R j(6,9)R j(6,8)R j(6,7)R j(6,6)R j(6,5)R j(6,4)R j(6,3)R j(6,2)R j(6,1)R i(7,0)</route>
			</leg>
			<act type="home" link="i(7,0)" />
		</plan>

	</person>

<!-- ====================================================================== -->

	<person id="126" employed="no">
		<plan selected="yes">
			<act type="home" link="i(7,0)" end_time="08:00:00" />
			<leg mode="car">
				<route type="links">i(7,0) j(7,1) j(7,2) j(7,3) j(7,4) j(7,5) j(7,6) j(7,7) j(7,8) j(7,9) i(7,9)R</route>
			</leg>
			<act type="work" link="i(7,9)R" max_dur="08:00:00" />
			<leg mode="car">
				<route type="links">i(7,9)R j(6,9)R j(6,8)R j(6,7)R j(6,6)R j(6,5)R j(6,4)R j(6,3)R j(6,2)R j(6,1)R i(7,0)</route>
			</leg>
			<act type="home" link="i(7,0)" />
		</plan>

	</person>

<!-- ====================================================================== -->

	<person id="127" employed="no">
		<plan selected="yes">
			<act type="home" link="i(8,9)R" end_time="08:00:00" />
			<leg mode="car">
				<route type="links">i(8,9)R i(7,9)R j(6,9)R j(6,8)R j(6,7)R j(6,6)R j(6,5)R j(6,4)R j(6,3)R j(6,2)R j(6,1)R i(7,0) i(8,0)</route>
			</leg>
			<act type="work" link="i(8,0)" max_dur="08:00:00" />
			<leg mode="car">
				<route type="links">i(8,0) i(9,0) j(9,1) j(9,2) j(9,3) j(9,4) j(9,5) j(9,6) j(9,7) j(9,8) j(9,9) i(9,9)R i(8,9)R</route>
			</leg>
			<act type="home" link="i(8,9)R" />
		</plan>

	</person>

<!-- ====================================================================== -->

	<person id="128" employed="no">
		<plan selected="yes">
			<act type="home" link="i(8,9)R" end_time="08:00:00" />
			<leg mode="car">
				<route type="links">i(8,9)R i(7,9)R j(6,9)R j(6,8)R j(6,7)R j(6,6)R j(6,5)R j(6,4)R j(6,3)R j(6,2)R j(6,1)R i(7,0) i(8,0)</route>
			</leg>
			<act type="work" link="i(8,0)" max_dur="08:00:00" />
			<leg mode="car">
				<route type="links">i(8,0) i(9,0) j(9,1) j(9,2) j(9,3) j(9,4) j(9,5) j(9,6) j(9,7) j(9,8) j(9,9) i(9,9)R i(8,9)R</route>
			</leg>
			<act type="home" link="i(8,9)R" />
		</plan>

	</person>

<!-- ====================================================================== -->

	<person id="129" employed="no">
		<plan selected="yes">
			<act type="home" link="i(8,9)R" end_time="08:00:00" />
			<leg mode="car">
				<route type="links">i(8,9)R i(7,9)R j(6,9)R j(6,8)R j(6,7)R j(6,6)R j(6,5)R j(6,4)R j(6,3)R j(6,2)R j(6,1)R i(7,0) i(8,0)</route>
			</leg>
			<act type="work" link="i(8,0)" max_dur="08:00:00" />
			<leg mode="car">
				<route type="links">i(8,0) i(9,0) j(9,1) j(9,2) j(9,3) j(9,4) j(9,5) j(9,6) j(9,7) j(9,8) j(9,9) i(9,9)R i(8,9)R</route>
			</leg>
			<act type="home" link="i(8,9)R" />
		</plan>

	</person>

<!-- ====================================================================== -->

	<person id="13" employed="no">
		<plan selected="yes">
			<act type="home" link="i(1,0)" end_time="08:00:00" />
			<leg mode="car">
				<route type="links">i(1,0) j(1,1) j(1,2) j(1,3) j(1,4) j(1,5) j(1,6) j(1,7) j(1,8) j(1,9) i(1,9)R</route>
			</leg>
			<act type="work" link="i(1,9)R" max_dur="08:00:00" />
			<leg mode="car">
				<route type="links">i(1,9)R j(0,9)R j(0,8)R j(0,7)R j(0,6)R j(0,5)R j(0,4)R j(0,3)R j(0,2)R j(0,1)R i(1,0)</route>
			</leg>
			<act type="home" link="i(1,0)" />
		</plan>

	</person>

<!-- ====================================================================== -->

	<person id="130" employed="no">
		<plan selected="yes">
			<act type="home" link="i(8,9)R" end_time="08:00:00" />
			<leg mode="car">
				<route type="links">i(8,9)R i(7,9)R j(6,9)R j(6,8)R j(6,7)R j(6,6)R j(6,5)R j(6,4)R j(6,3)R j(6,2)R j(6,1)R i(7,0) i(8,0)</route>
			</leg>
			<act type="work" link="i(8,0)" max_dur="08:00:00" />
			<leg mode="car">
				<route type="links">i(8,0) i(9,0) j(9,1) j(9,2) j(9,3) j(9,4) j(9,5) j(9,6) j(9,7) j(9,8) j(9,9) i(9,9)R i(8,9)R</route>
			</leg>
			<act type="home" link="i(8,9)R" />
		</plan>

	</person>

<!-- ====================================================================== -->

	<person id="131" employed="no">
		<plan selected="yes">
			<act type="home" link="i(8,9)R" end_time="08:00:00" />
			<leg mode="car">
				<route type="links">i(8,9)R i(7,9)R j(6,9)R j(6,8)R j(6,7)R j(6,6)R j(6,5)R j(6,4)R j(6,3)R j(6,2)R j(6,1)R i(7,0) i(8,0)</route>
			</leg>
			<act type="work" link="i(8,0)" max_dur="08:00:00" />
			<leg mode="car">
				<route type="links">i(8,0) i(9,0) j(9,1) j(9,2) j(9,3) j(9,4) j(9,5) j(9,6) j(9,7) j(9,8) j(9,9) i(9,9)R i(8,9)R</route>
			</leg>
			<act type="home" link="i(8,9)R" />
		</plan>

	</person>

<!-- ====================================================================== -->

	<person id="132" employed="no">
		<plan selected="yes">
			<act type="home" link="i(8,9)R" end_time="08:00:00" />
			<leg mode="car">
				<route type="links">i(8,9)R i(7,9)R j(6,9)R j(6,8)R j(6,7)R j(6,6)R j(6,5)R j(6,4)R j(6,3)R j(6,2)R j(6,1)R i(7,0) i(8,0)</route>
			</leg>
			<act type="work" link="i(8,0)" max_dur="08:00:00" />
			<leg mode="car">
				<route type="links">i(8,0) i(9,0) j(9,1) j(9,2) j(9,3) j(9,4) j(9,5) j(9,6) j(9,7) j(9,8) j(9,9) i(9,9)R i(8,9)R</route>
			</leg>
			<act type="home" link="i(8,9)R" />
		</plan>

	</person>

<!-- ====================================================================== -->

	<person id="133" employed="no">
		<plan selected="yes">
			<act type="home" link="i(8,9)R" end_time="08:00:00" />
			<leg mode="car">
				<route type="links">i(8,9)R i(7,9)R j(6,9)R j(6,8)R j(6,7)R j(6,6)R j(6,5)R j(6,4)R j(6,3)R j(6,2)R j(6,1)R i(7,0) i(8,0)</route>
			</leg>
			<act type="work" link="i(8,0)" max_dur="08:00:00" />
			<leg mode="car">
				<route type="links">i(8,0) i(9,0) j(9,1) j(9,2) j(9,3) j(9,4) j(9,5) j(9,6) j(9,7) j(9,8) j(9,9) i(9,9)R i(8,9)R</route>
			</leg>
			<act type="home" link="i(8,9)R" />
		</plan>

	</person>

<!-- ====================================================================== -->

	<person id="134" employed="no">
		<plan selected="yes">
			<act type="home" link="i(8,9)R" end_time="08:00:00" />
			<leg mode="car">
				<route type="links">i(8,9)R i(7,9)R j(6,9)R j(6,8)R j(6,7)R j(6,6)R j(6,5)R j(6,4)R j(6,3)R j(6,2)R j(6,1)R i(7,0) i(8,0)</route>
			</leg>
			<act type="work" link="i(8,0)" max_dur="08:00:00" />
			<leg mode="car">
				<route type="links">i(8,0) i(9,0) j(9,1) j(9,2) j(9,3) j(9,4) j(9,5) j(9,6) j(9,7) j(9,8) j(9,9) i(9,9)R i(8,9)R</route>
			</leg>
			<act type="home" link="i(8,9)R" />
		</plan>

	</person>

<!-- ====================================================================== -->

	<person id="135" employed="no">
		<plan selected="yes">
			<act type="home" link="i(8,9)R" end_time="08:00:00" />
			<leg mode="car">
				<route type="links">i(8,9)R i(7,9)R j(6,9)R j(6,8)R j(6,7)R j(6,6)R j(6,5)R j(6,4)R j(6,3)R j(6,2)R j(6,1)R i(7,0) i(8,0)</route>
			</leg>
			<act type="work" link="i(8,0)" max_dur="08:00:00" />
			<leg mode="car">
				<route type="links">i(8,0) i(9,0) j(9,1) j(9,2) j(9,3) j(9,4) j(9,5) j(9,6) j(9,7) j(9,8) j(9,9) i(9,9)R i(8,9)R</route>
			</leg>
			<act type="home" link="i(8,9)R" />
		</plan>

	</person>

<!-- ====================================================================== -->

	<person id="136" employed="no">
		<plan selected="yes">
			<act type="home" link="i(8,0)" end_time="08:00:00" />
			<leg mode="car">
				<route type="links">i(8,0) i(9,0) j(9,1) j(9,2) j(9,3) j(9,4) j(9,5) j(9,6) j(9,7) j(9,8) j(9,9) i(9,9)R i(8,9)R</route>
			</leg>
			<act type="work" link="i(8,9)R" max_dur="08:00:00" />
			<leg mode="car">
				<route type="links">i(8,9)R i(7,9)R j(6,9)R j(6,8)R j(6,7)R j(6,6)R j(6,5)R j(6,4)R j(6,3)R j(6,2)R j(6,1)R i(7,0) i(8,0)</route>
			</leg>
			<act type="home" link="i(8,0)" />
		</plan>

	</person>

<!-- ====================================================================== -->

	<person id="137" employed="no">
		<plan selected="yes">
			<act type="home" link="i(8,0)" end_time="08:00:00" />
			<leg mode="car">
				<route type="links">i(8,0) i(9,0) j(9,1) j(9,2) j(9,3) j(9,4) j(9,5) j(9,6) j(9,7) j(9,8) j(9,9) i(9,9)R i(8,9)R</route>
			</leg>
			<act type="work" link="i(8,9)R" max_dur="08:00:00" />
			<leg mode="car">
				<route type="links">i(8,9)R i(7,9)R j(6,9)R j(6,8)R j(6,7)R j(6,6)R j(6,5)R j(6,4)R j(6,3)R j(6,2)R j(6,1)R i(7,0) i(8,0)</route>
			</leg>
			<act type="home" link="i(8,0)" />
		</plan>

	</person>

<!-- ====================================================================== -->

	<person id="138" employed="no">
		<plan selected="yes">
			<act type="home" link="i(8,0)" end_time="08:00:00" />
			<leg mode="car">
				<route type="links">i(8,0) i(9,0) j(9,1) j(9,2) j(9,3) j(9,4) j(9,5) j(9,6) j(9,7) j(9,8) j(9,9) i(9,9)R i(8,9)R</route>
			</leg>
			<act type="work" link="i(8,9)R" max_dur="08:00:00" />
			<leg mode="car">
				<route type="links">i(8,9)R i(7,9)R j(6,9)R j(6,8)R j(6,7)R j(6,6)R j(6,5)R j(6,4)R j(6,3)R j(6,2)R j(6,1)R i(7,0) i(8,0)</route>
			</leg>
			<act type="home" link="i(8,0)" />
		</plan>

	</person>

<!-- ====================================================================== -->

	<person id="139" employed="no">
		<plan selected="yes">
			<act type="home" link="i(8,0)" end_time="08:00:00" />
			<leg mode="car">
				<route type="links">i(8,0) i(9,0) j(9,1) j(9,2) j(9,3) j(9,4) j(9,5) j(9,6) j(9,7) j(9,8) j(9,9) i(9,9)R i(8,9)R</route>
			</leg>
			<act type="work" link="i(8,9)R" max_dur="08:00:00" />
			<leg mode="car">
				<route type="links">i(8,9)R i(7,9)R j(6,9)R j(6,8)R j(6,7)R j(6,6)R j(6,5)R j(6,4)R j(6,3)R j(6,2)R j(6,1)R i(7,0) i(8,0)</route>
			</leg>
			<act type="home" link="i(8,0)" />
		</plan>

	</person>

<!-- ====================================================================== -->

	<person id="14" employed="no">
		<plan selected="yes">
			<act type="home" link="i(1,0)" end_time="08:00:00" />
			<leg mode="car">
				<route type="links">i(1,0) j(1,1) j(1,2) j(1,3) j(1,4) j(1,5) j(1,6) j(1,7) j(1,8) j(1,9) i(1,9)R</route>
			</leg>
			<act type="work" link="i(1,9)R" max_dur="08:00:00" />
			<leg mode="car">
				<route type="links">i(1,9)R j(0,9)R j(0,8)R j(0,7)R j(0,6)R j(0,5)R j(0,4)R j(0,3)R j(0,2)R j(0,1)R i(1,0)</route>
			</leg>
			<act type="home" link="i(1,0)" />
		</plan>

	</person>

<!-- ====================================================================== -->

	<person id="140" employed="no">
		<plan selected="yes">
			<act type="home" link="i(8,0)" end_time="08:00:00" />
			<leg mode="car">
				<route type="links">i(8,0) i(9,0) j(9,1) j(9,2) j(9,3) j(9,4) j(9,5) j(9,6) j(9,7) j(9,8) j(9,9) i(9,9)R i(8,9)R</route>
			</leg>
			<act type="work" link="i(8,9)R" max_dur="08:00:00" />
			<leg mode="car">
				<route type="links">i(8,9)R i(7,9)R j(6,9)R j(6,8)R j(6,7)R j(6,6)R j(6,5)R j(6,4)R j(6,3)R j(6,2)R j(6,1)R i(7,0) i(8,0)</route>
			</leg>
			<act type="home" link="i(8,0)" />
		</plan>

	</person>

<!-- ====================================================================== -->

	<person id="141" employed="no">
		<plan selected="yes">
			<act type="home" link="i(8,0)" end_time="08:00:00" />
			<leg mode="car">
				<route type="links">i(8,0) i(9,0) j(9,1) j(9,2) j(9,3) j(9,4) j(9,5) j(9,6) j(9,7) j(9,8) j(9,9) i(9,9)R i(8,9)R</route>
			</leg>
			<act type="work" link="i(8,9)R" max_dur="08:00:00" />
			<leg mode="car">
				<route type="links">i(8,9)R i(7,9)R j(6,9)R j(6,8)R j(6,7)R j(6,6)R j(6,5)R j(6,4)R j(6,3)R j(6,2)R j(6,1)R i(7,0) i(8,0)</route>
			</leg>
			<act type="home" link="i(8,0)" />
		</plan>

	</person>

<!-- ====================================================================== -->

	<person id="142" employed="no">
		<plan selected="yes">
			<act type="home" link="i(8,0)" end_time="08:00:00" />
			<leg mode="car">