<?xml version="1.0" encoding="utf-8"?>
<!DOCTYPE population SYSTEM "http://www.matsim.org/files/dtd/population_v5.dtd">

<population>

<!-- ====================================================================== -->

	<person id="100" employed="no">
		<plan score="0.0" selected="yes">
			<act type="pre-evac" link="282" x="1277295.1406434076" y="6965585.286755387" end_time="00:00:00" />
			<leg mode="car">
			</leg>
			<act type="post-evac" link="el1" x="1287382.1755019908" y="6975627.009256612" end_time="00:00:00" />
		</plan>

	</person>

<!-- ====================================================================== -->

	<person id="101" employed="no">
		<plan score="0.0" selected="yes">
			<act type="pre-evac" link="281" x="1277303.2305217646" y="6965579.713355622" end_time="00:00:00" />
			<leg mode="car">
			</leg>
			<act type="post-evac" link="el1" x="1287382.1755019908" y="6975627.009256612" end_time="00:00:00" />
		</plan>

	</person>

<!-- ====================================================================== -->

	<person id="102" employed="no">
		<plan score="0.0" selected="yes">
			<act type="pre-evac" link="282" x="1277286.704455906" y="6965562.414689426" end_time="00:00:00" />
			<leg mode="car">
			</leg>
			<act type="post-evac" link="el1" x="1287382.1755019908" y="6975627.009256612" end_time="00:00:00" />
		</plan>

	</person>

<!-- ====================================================================== -->

	<person id="103" employed="no">
		<plan score="0.0" selected="yes">
			<act type="pre-evac" link="281" x="1277297.5032235403" y="6965567.327795477" end_time="00:00:00" />
			<leg mode="car">
			</leg>
			<act type="post-evac" link="el1" x="1287382.1755019908" y="6975627.009256612" end_time="00:00:00" />
		</plan>

	</person>

<!-- ====================================================================== -->

	<person id="105" employed="no">
		<plan score="0.0" selected="yes">
			<act type="pre-evac" link="293" x="1277259.5959190836" y="6965557.007689163" end_time="00:00:00" />
			<leg mode="car">
			</leg>
			<act type="post-evac" link="el1" x="1287382.1755019908" y="6975627.009256612" end_time="00:00:00" />
		</plan>

	</person>

<!-- ====================================================================== -->

	<person id="106" employed="no">
		<plan score="0.0" selected="yes">
			<act type="pre-evac" link="281" x="1277291.5116031554" y="6965557.875730894" end_time="00:00:00" />
			<leg mode="car">
			</leg>
			<act type="post-evac" link="el1" x="1287382.1755019908" y="6975627.009256612" end_time="00:00:00" />
		</plan>

	</person>

<!-- ====================================================================== -->

	<person id="107" employed="no">
		<plan score="0.0" selected="yes">
			<act type="pre-evac" link="294" x="1277255.0201987724" y="6965560.492718327" end_time="00:00:00" />
			<leg mode="car">
			</leg>
			<act type="post-evac" link="el1" x="1287382.1755019908" y="6975627.009256612" end_time="00:00:00" />
		</plan>

	</person>

<!-- ====================================================================== -->

	<person id="108" employed="no">
		<plan score="0.0" selected="yes">
			<act type="pre-evac" link="282" x="1277307.8096108565" y="6965557.925296104" end_time="00:00:00" />
			<leg mode="car">
			</leg>
			<act type="post-evac" link="el1" x="1287382.1755019908" y="6975627.009256612" end_time="00:00:00" />
		</plan>

	</person>

<!-- ====================================================================== -->

	<person id="109" employed="no">
		<plan score="0.0" selected="yes">
			<act type="pre-evac" link="291" x="1277284.464969582" y="6965547.695155286" end_time="00:00:00" />
			<leg mode="car">
			</leg>
			<act type="post-evac" link="el1" x="1287382.1755019908" y="6975627.009256612" end_time="00:00:00" />
		</plan>

	</person>

<!-- ====================================================================== -->

	<person id="11" employed="no">
		<plan score="0.0" selected="yes">
			<act type="pre-evac" link="33" x="1277129.1037849619" y="6965539.786827858" end_time="00:00:00" />
			<leg mode="car">
			</leg>
			<act type="post-evac" link="el1" x="1287382.1755019908" y="6975627.009256612" end_time="00:00:00" />
		</plan>

	</person>

<!-- ====================================================================== -->

	<person id="114" employed="no">
		<plan score="0.0" selected="yes">
			<act type="pre-evac" link="39" x="1277256.0855877302" y="6965571.347931166" end_time="00:00:00" />
			<leg mode="car">
			</leg>
			<act type="post-evac" link="el1" x="1287382.1755019908" y="6975627.009256612" end_time="00:00:00" />
		</plan>

	</person>

<!-- ====================================================================== -->

	<person id="115" employed="no">
		<plan score="0.0" selected="yes">
			<act type="pre-evac" link="282" x="1277302.0580291296" y="6965561.016389326" end_time="00:00:00" />
			<leg mode="car">
			</leg>
			<act type="post-evac" link="el1" x="1287382.1755019908" y="6975627.009256612" end_time="00:00:00" />
		</plan>

	</person>

<!-- ====================================================================== -->

	<person id="116" employed="no">
		<plan score="0.0" selected="yes">
			<act type="pre-evac" link="293" x="1277269.0314915199" y="6965539.091827332" end_time="00:00:00" />
			<leg mode="car">
			</leg>
			<act type="post-evac" link="el1" x="1287382.1755019908" y="6975627.009256612" end_time="00:00:00" />
		</plan>

	</person>

<!-- ====================================================================== -->

	<person id="117" employed="no">
		<plan score="0.0" selected="yes">
			<act type="pre-evac" link="281" x="1277295.2878033053" y="6965551.758689027" end_time="00:00:00" />
			<leg mode="car">
			</leg>
			<act type="post-evac" link="el1" x="1287382.1755019908" y="6975627.009256612" end_time="00:00:00" />
		</plan>

	</person>

<!-- ====================================================================== -->

	<person id="119" employed="no">
		<plan score="0.0" selected="yes">
			<act type="pre-evac" link="39" x="1277259.9265884315" y="6965581.534661114" end_time="00:00:00" />
			<leg mode="car">
			</leg>
			<act type="post-evac" link="el1" x="1287382.1755019908" y="6975627.009256612" end_time="00:00:00" />
		</plan>

	</person>

<!-- ====================================================================== -->

	<person id="12" employed="no">
		<plan score="0.0" selected="yes">
			<act type="pre-evac" link="300" x="1277184.5046472163" y="6965533.70841041" end_time="00:00:00" />
			<leg mode="car">
			</leg>
			<act type="post-evac" link="el1" x="1287382.1755019908" y="6975627.009256612" end_time="00:00:00" />
		</plan>

	</person>

<!-- ====================================================================== -->

	<person id="120" employed="no">
		<plan score="0.0" selected="yes">
			<act type="pre-evac" link="40" x="1277290.7012476851" y="6965593.759685387" end_time="00:00:00" />
			<leg mode="car">
			</leg>
			<act type="post-evac" link="el1" x="1287382.1755019908" y="6975627.009256612" end_time="00:00:00" />
		</plan>

	</person>

<!-- ====================================================================== -->

	<person id="121" employed="no">
		<plan score="0.0" selected="yes">
			<act type="pre-evac" link="281" x="1277295.1616398224" y="6965551.258412835" end_time="00:00:00" />
			<leg mode="car">
			</leg>
			<act type="post-evac" link="el1" x="1287382.1755019908" y="6975627.009256612" end_time="00:00:00" />
		</plan>

	</person>

<!-- ====================================================================== -->

	<person id="122" employed="no">
		<plan score="0.0" selected="yes">
			<act type="pre-evac" link="294" x="1277255.0759702139" y="6965555.819120027" end_time="00:00:00" />
			<leg mode="car">
			</leg>
			<act type="post-evac" link="el1" x="1287382.1755019908" y="6975627.009256612" end_time="00:00:00" />
		</plan>

	</person>

<!-- ====================================================================== -->

	<person id="123" employed="no">
		<plan score="0.0" selected="yes">
			<act type="pre-evac" link="293" x="1277273.2942375622" y="6965552.245297523" end_time="00:00:00" />
			<leg mode="car">
			</leg>
			<act type="post-evac" link="el1" x="1287382.1755019908" y="6975627.009256612" end_time="00:00:00" />
		</plan>

	</person>

<!-- ====================================================================== -->

	<person id="124" employed="no">
		<plan score="0.0" selected="yes">
			<act type="pre-evac" link="39" x="1277250.535488372" y="6965581.013465262" end_time="00:00:00" />
			<leg mode="car">
			</leg>
			<act type="post-evac" link="el1" x="1287382.1755019908" y="6975627.009256612" end_time="00:00:00" />
		</plan>

	</person>

<!-- ====================================================================== -->

	<person id="125" employed="no">
		<plan score="0.0" selected="yes">
			<act type="pre-evac" link="293" x="1277275.2589430963" y="6965560.088864501" end_time="00:00:00" />
			<leg mode="car">
			</leg>
			<act type="post-evac" link="el1" x="1287382.1755019908" y="6975627.009256612" end_time="00:00:00" />
		</plan>

	</person>

<!-- ====================================================================== -->

	<person id="126" employed="no">
		<plan score="0.0" selected="yes">
			<act type="pre-evac" link="281" x="1277291.937257567" y="6965559.217259056" end_time="00:00:00" />
			<leg mode="car">
			</leg>
			<act type="post-evac" link="el1" x="1287382.1755019908" y="6975627.009256612" end_time="00:00:00" />
		</plan>

	</person>

<!-- ====================================================================== -->

	<person id="127" employed="no">
		<plan score="0.0" selected="yes">
			<act type="pre-evac" link="39" x="1277255.5640055581" y="6965588.04011713" end_time="00:00:00" />
			<leg mode="car">
			</leg>
			<act type="post-evac" link="el1" x="1287382.1755019908" y="6975627.009256612" end_time="00:00:00" />
		</plan>

	</person>

<!-- ====================================================================== -->

	<person id="128" employed="no">
		<plan score="0.0" selected="yes">
			<act type="pre-evac" link="40" x="1277273.7695956123" y="6965574.080683505" end_time="00:00:00" />
			<leg mode="car">
			</leg>
			<act type="post-evac" link="el1" x="1287382.1755019908" y="6975627.009256612" end_time="00:00:00" />
		</plan>

	</person>

<!-- ====================================================================== -->

	<person id="129" employed="no">
		<plan score="0.0" selected="yes">
			<act type="pre-evac" link="39" x="1277249.1846348615" y="6965571.947687157" end_time="00:00:00" />
			<leg mode="car">
			</leg>
			<act type="post-evac" link="el1" x="1287382.1755019908" y="6975627.009256612" end_time="00:00:00" />
		</plan>

	</person>

<!-- ====================================================================== -->

	<person id="13" employed="no">
		<plan score="0.0" selected="yes">
			<act type="pre-evac" link="299" x="1277131.4516315218" y="6965518.205258017" end_time="00:00:00" />
			<leg mode="car">
			</leg>
			<act type="post-evac" link="el1" x="1287382.1755019908" y="6975627.009256612" end_time="00:00:00" />
		</plan>

	</person>

<!-- ====================================================================== -->

	<person id="130" employed="no">
		<plan score="0.0" selected="yes">
			<act type="pre-evac" link="281" x="1277299.2020968662" y="6965566.371266484" end_time="00:00:00" />
			<leg mode="car">
			</leg>
			<act type="post-evac" link="el1" x="1287382.1755019908" y="6975627.009256612" end_time="00:00:00" />
		</plan>

	</person>

<!-- ====================================================================== -->

	<person id="131" employed="no">
		<plan score="0.0" selected="yes">
			<act type="pre-evac" link="281" x="1277288.9630019509" y="6965564.47998385" end_time="00:00:00" />
			<leg mode="car">
			</leg>
			<act type="post-evac" link="el1" x="1287382.1755019908" y="6975627.009256612" end_time="00:00:00" />
		</plan>

	</person>

<!-- ====================================================================== -->

	<person id="132" employed="no">
		<plan score="0.0" selected="yes">
			<act type="pre-evac" link="281" x="1277306.337708037" y="6965577.979087209" end_time="00:00:00" />
			<leg mode="car">
			</leg>
			<act type="post-evac" link="el1" x="1287382.1755019908" y="6975627.009256612" end_time="00:00:00" />
		</plan>

	</person>

<!-- ====================================================================== -->

	<person id="134" employed="no">
		<plan score="0.0" selected="yes">
			<act type="pre-evac" link="39" x="1277274.6442397493" y="6965589.1496172855" end_time="00:00:00" />
			<leg mode="car">
			</leg>
			<act type="post-evac" link="el1" x="1287382.1755019908" y="6975627.009256612" end_time="00:00:00" />
		</plan>

	</person>

<!-- ====================================================================== -->

	<person id="135" employed="no">
		<plan score="0.0" selected="yes">
			<act type="pre-evac" link="293" x="1277279.9435930212" y="6965548.443391385" end_time="00:00:00" />
			<leg mode="car">
			</leg>
			<act type="post-evac" link="el1" x="1287382.1755019908" y="6975627.009256612" end_time="00:00:00" />
		</plan>

	</person>

<!-- ====================================================================== -->

	<person id="136" employed="no">
		<plan score="0.0" selected="yes">
			<act type="pre-evac" link="39" x="1277269.6316769428" y="6965581.9984359685" end_time="00:00:00" />
			<leg mode="car">
			</leg>
			<act type="post-evac" link="el1" x="1287382.1755019908" y="6975627.009256612" end_time="00:00:00" />
		</plan>

	</person>

<!-- ====================================================================== -->

	<person id="137" employed="no">
		<plan score="0.0" selected="yes">
			<act type="pre-evac" link="293" x="1277271.7039363985" y="6965550.589286973" end_time="00:00:00" />
			<leg mode="car">
			</leg>
			<act type="post-evac" link="el1" x="1287382.1755019908" y="6975627.009256612" end_time="00:00:00" />
		</plan>

	</person>

<!-- ====================================================================== -->

	<person id="138" employed="no">
		<plan score="0.0" selected="yes">
			<act type="pre-evac" link="281" x="1277307.1977973296" y="6965555.662948747" end_time="00:00:00" />
			<leg mode="car">
			</leg>
			<act type="post-evac" link="el1" x="1287382.1755019908" y="6975627.009256612" end_time="00:00:00" />
		</plan>

	</person>

<!-- ====================================================================== -->

	<person id="139" employed="no">
		<plan score="0.0" selected="yes">
			<act type="pre-evac" link="293" x="1277257.5998835808" y="6965546.60756399" end_time="00:00:00" />
			<leg mode="car">
			</leg>
			<act type="post-evac" link="el1" x="1287382.1755019908" y="6975627.009256612" end_time="00:00:00" />
		</plan>

	</person>

<!-- ====================================================================== -->

	<person id="14" employed="no">
		<plan score="0.0" selected="yes">
			<act type="pre-evac" link="33" x="1277136.199227221" y="6965566.022032846" end_time="00:00:00" />
			<leg mode="car">
			</leg>
			<act type="post-evac" link="el1" x="1287382.1755019908" y="6975627.009256612" end_time="00:00:00" />
		</plan>

	</person>

<!-- ====================================================================== -->

	<person id="140" employed="no">
		<plan score="0.0" selected="yes">
			<act type="pre-evac" link="281" x="1277292.9668772828" y="6965559.957209306" end_time="00:00:00" />
			<leg mode="car">
			</leg>
			<act type="post-evac" link="el1" x="1287382.1755019908" y="6975627.009256612" end_time="00:00:00" />
		</plan>

	</person>

<!-- ====================================================================== -->

	<person id="141" employed="no">
		<plan score="0.0" selected="yes">
			<act type="pre-evac" link="282" x="1277279.952369733" y="6965561.638930918" end_time="00:00:01" />
			<leg mode="car">
			</leg>
			<act type="post-evac" link="el1" x="1287382.1755019908" y="6975627.009256612" end_time="00:00:00" />
		</plan>

	</person>

<!-- ====================================================================== -->

	<person id="142" employed="no">
		<plan score="0.0" selected="yes">
			<act type="pre-evac" link="293" x="1277258.0084486152" y="6965549.746803029" end_time="00:00:00" />
			<leg mode="car">
			</leg>
			<act type="post-evac" link="el1" x="1287382.1755019908" y="6975627.009256612" end_time="00:00:00" />
		</plan>

	</person>

<!-- ====================================================================== -->

	<person id="143" employed="no">
		<plan score="0.0" selected="yes">
			<act type="pre-evac" link="281" x="1277296.5510597054" y="6965562.896441998" end_time="00:00:00" />
			<leg mode="car">
			</leg>
			<act type="post-evac" link="el1" x="1287382.1755019908" y="6975627.009256612" end_time="00:00:00" />
		</plan>

	</person>

<!-- ====================================================================== -->

	<person id="144" employed="no">
		<plan score="0.0" selected="yes">
			<act type="pre-evac" link="281" x="1277302.6105214069" y="6965584.411127538" end_time="00:00:00" />
			<leg mode="car">
			</leg>
			<act type="post-evac" link="el1" x="1287382.1755019908" y="6975627.009256612" end_time="00:00:00" />
		</plan>

	</person>

<!-- ====================================================================== -->

	<person id="145" employed="no">
		<plan score="0.0" selected="yes">
			<act type="pre-evac" link="293" x="1277284.0497537479" y="6965541.301306983" end_time="00:00:00" />
			<leg mode="car">
			</leg>
			<act type="post-evac" link="el1" x="1287382.1755019908" y="6975627.009256612" end_time="00:00:00" />
		</plan>

	</person>

<!-- ====================================================================== -->

	<person id="146" employed="no">
		<plan score="0.0" selected="yes">
			<act type="pre-evac" link="39" x="1277270.9887539046" y="6965597.327932526" end_time="00:00:00" />
			<leg mode="car">
			</leg>
			<act type="post-evac" link="el1" x="1287382.1755019908" y="6975627.009256612" end_time="00:00:00" />
		</plan>

	</person>

<!-- ====================================================================== -->

	<person id="147" employed="no">
		<plan score="0.0" selected="yes">
			<act type="pre-evac" link="40" x="1277244.0250722389" y="6965559.786204006" end_time="00:00:00" />
			<leg mode="car">
			</leg>
			<act type="post-evac" link="el1" x="1287382.1755019908" y="6975627.009256612" end_time="00:00:00" />
		</plan>

	</person>

<!-- ====================================================================== -->

	<person id="149" employed="no">
		<plan score="0.0" selected="yes">
			<act type="pre-evac" link="39" x="1277257.7742520054" y="6965590.724771812" end_time="00:00:00" />
			<leg mode="car">
			</leg>
			<act type="post-evac" link="el1" x="1287382.1755019908" y="6975627.009256612" end_time="00:00:00" />
		</plan>

	</person>

<!-- ====================================================================== -->

	<person id="150" employed="no">
		<plan score="0.0" selected="yes">
			<act type="pre-evac" link="293" x="1277267.0951215073" y="6965559.45228075" end_time="00:00:00" />
			<leg mode="car">
			</leg>
			<act type="post-evac" link="el1" x="1287382.1755019908" y="6975627.009256612" end_time="00:00:00" />
		</plan>

	</person>

<!-- ====================================================================== -->

	<person id="151" employed="no">
		<plan score="0.0" selected="yes">
			<act type="pre-evac" link="293" x="1277275.5453014134" y="6965543.717598056" end_time="00:00:00" />
			<leg mode="car">
			</leg>
			<act type="post-evac" link="el1" x="1287382.1755019908" y="6975627.009256612" end_time="00:00:00" />
		</plan>

	</person>

<!-- ====================================================================== -->

	<person id="152" employed="no">
		<plan score="0.0" selected="yes">
			<act type="pre-evac" link="281" x="1277303.2886604723" y="6965560.102816507" end_time="00:00:00" />
			<leg mode="car">
			</leg>
			<act type="post-evac" link="el1" x="1287382.1755019908" y="6975627.009256612" end_time="00:00:00" />
		</plan>

	</person>

<!-- ====================================================================== -->

	<person id="153" employed="no">
		<plan score="0.0" selected="yes">
			<act type="pre-evac" link="40" x="1277261.2463342731" y="6965562.661385311" end_time="00:00:00" />
			<leg mode="car">
			</leg>
			<act type="post-evac" link="el1" x="1287382.1755019908" y="6975627.009256612" end_time="00:00:00" />
		</plan>

	</person>

<!-- ====================================================================== -->

	<person id="154" employed="no">
		<plan score="0.0" selected="yes">
			<act type="pre-evac" link="282" x="1277301.054097354" y="6965548.704406864" end_time="00:00:00" />
			<leg mode="car">
			</leg>
			<act type="post-evac" link="el1" x="1287382.1755019908" y="6975627.009256612" end_time="00:00:00" />
		</plan>

	</person>

<!-- ====================================================================== -->

	<person id="155" employed="no">
		<plan score="0.0" selected="yes">
			<act type="pre-evac" link="293" x="1277287.4487252054" y="6965538.307405656" end_time="00:00:00" />
			<leg mode="car">
			</leg>
			<act type="post-evac" link="el1" x="1287382.1755019908" y="6975627.009256612" end_time="00:00:00" />
		</plan>

	</person>

<!-- ====================================================================== -->

	<person id="156" employed="no">
		<plan score="0.0" selected="yes">
			<act type="pre-evac" link="281" x="1277283.2977608063" y="6965560.662191268" end_time="00:00:00" />
			<leg mode="car">
			</leg>
			<act type="post-evac" link="el1" x="1287382.1755019908" y="6975627.009256612" end_time="00:00:00" />
		</plan>

	</person>

<!-- ====================================================================== -->

	<person id="157" employed="no">
		<plan score="0.0" selected="yes">
			<act type="pre-evac" link="40" x="1277261.513612113" y="6965572.911435633" end_time="00:00:00" />
			<leg mode="car">
			</leg>
			<act type="post-evac" link="el1" x="1287382.1755019908" y="6975627.009256612" end_time="00:00:00" />
		</plan>

	</person>

<!-- ====================================================================== -->

	<person id="158" employed="no">
		<plan score="0.0" selected="yes">
			<act type="pre-evac" link="39" x="1277280.059424898" y="6965573.901881975" end_time="00:00:00" />
			<leg mode="car">
			</leg>
			<act type="post-evac" link="el1" x="1287382.1755019908" y="6975627.009256612" end_time="00:00:00" />
		</plan>

	</person>

<!-- ====================================================================== -->

	<person id="16" employed="no">
		<plan score="0.0" selected="yes">
			<act type="pre-evac" link="299" x="1277142.6259204575" y="6965534.128746317" end_time="00:00:00" />
			<leg mode="car">
			</leg>
			<act type="post-evac" link="el1" x="1287382.1755019908" y="6975627.009256612" end_time="00:00:00" />
		</plan>

	</person>

<!-- ====================================================================== -->

	<person id="160" employed="no">
		<plan score="0.0" selected="yes">
			<act type="pre-evac" link="293" x="1277271.8308444512" y="6965546.044523295" end_time="00:00:00" />
			<leg mode="car">
			</leg>
			<act type="post-evac" link="el1" x="1287382.1755019908" y="6975627.009256612" end_time="00:00:00" />
		</plan>

	</person>

<!-- ====================================================================== -->

	<person id="162" employed="no">
		<plan score="0.0" selected="yes">
			<act type="pre-evac" link="294" x="1277258.940612476" y="6965560.6928644655" end_time="00:00:00" />
			<leg mode="car">
			</leg>
			<act type="post-evac" link="el1" x="1287382.1755019908" y="6975627.009256612" end_time="00:00:00" />
		</plan>

	</person>

<!-- ====================================================================== -->

	<person id="163" employed="no">
		<plan score="0.0" selected="yes">
			<act type="pre-evac" link="282" x="1277285.3024520932" y="6965560.067274778" end_time="00:00:00" />
			<leg mode="car">
			</leg>
			<act type="post-evac" link="el1" x="1287382.1755019908" y="6975627.009256612" end_time="00:00:00" />
		</plan>

	</person>

<!-- ====================================================================== -->

	<person id="164" employed="no">
		<plan score="0.0" selected="yes">
			<act type="pre-evac" link="39" x="1277256.5425197603" y="6965587.90591125" end_time="00:00:00" />
			<leg mode="car">
			</leg>
			<act type="post-evac" link="el1" x="1287382.1755019908" y="6975627.009256612" end_time="00:00:00" />
		</plan>

	</person>

<!-- ====================================================================== -->

	<person id="165" employed="no">
		<plan score="0.0" selected="yes">
			<act type="pre-evac" link="292" x="1277299.9421913414" y="6965546.454719231" end_time="00:00:01" />
			<leg mode="car">
			</leg>
			<act type="post-evac" link="el1" x="1287382.1755019908" y="6975627.009256612" end_time="00:00:00" />
		</plan>

	</person>

<!-- ====================================================================== -->

	<person id="166" employed="no">
		<plan score="0.0" selected="yes">
			<act type="pre-evac" link="293" x="1277278.9179240707" y="6965556.998919189" end_time="00:00:00" />
			<leg mode="car">
			</leg>
			<act type="post-evac" link="el1" x="1287382.1755019908" y="6975627.009256612" end_time="00:00:00" />
		</plan>

	</person>

<!-- ====================================================================== -->

	<person id="167" employed="no">
		<plan score="0.0" selected="yes">
			<act type="pre-evac" link="40" x="1277285.1772873907" y="6965592.922711667" end_time="00:00:00" />
			<leg mode="car">
			</leg>
			<act type="post-evac" link="el1" x="1287382.1755019908" y="6975627.009256612" end_time="00:00:00" />
		</plan>

	</person>

<!-- ====================================================================== -->

	<person id="168" employed="no">
		<plan score="0.0" selected="yes">
			<act type="pre-evac" link="281" x="1277298.6000322227" y="6965584.221829782" end_time="00:00:00" />
			<leg mode="car">
			</leg>
			<act type="post-evac" link="el1" x="1287382.1755019908" y="6975627.009256612" end_time="00:00:00" />
		</plan>

	</person>

<!-- ====================================================================== -->

	<person id="169" employed="no">
		<plan score="0.0" selected="yes">
			<act type="pre-evac" link="294" x="1277262.1381781567" y="6965535.433265159" end_time="00:00:00" />
			<leg mode="car">
			</leg>
			<act type="post-evac" link="el1" x="1287382.1755019908" y="6975627.009256612" end_time="00:00:00" />
		</plan>

	</person>

<!-- ====================================================================== -->

	<person id="17" employed="no">
		<plan score="0.0" selected="yes">
			<act type="pre-evac" link="34" x="1277143.2375106085" y="6965559.073130826" end_time="00:00:00" />
			<leg mode="car">
			</leg>
			<act type="post-evac" link="el1" x="1287382.1755019908" y="6975627.009256612" end_time="00:00:00" />
		</plan>

	</person>

<!-- ====================================================================== -->

	<person id="170" employed="no">
		<plan score="0.0" selected="yes">
			<act type="pre-evac" link="294" x="1277274.176226112" y="6965557.845332782" end_time="00:00:00" />
			<leg mode="car">
			</leg>
			<act type="post-evac" link="el1" x="1287382.1755019908" y="6975627.009256612" end_time="00:00:00" />
		</plan>

	</person>

<!-- ====================================================================== -->

	<person id="171" employed="no">
		<plan score="0.0" selected="yes">
			<act type="pre-evac" link="293" x="1277255.9443171083" y="6965560.111722496" end_time="00:00:00" />
			<leg mode="car">
			</leg>
			<act type="post-evac" link="el1" x="1287382.1755019908" y="6975627.009256612" end_time="00:00:00" />
		</plan>

	</person>

<!-- ====================================================================== -->

	<person id="172" employed="no">
		<plan score="0.0" selected="yes">
			<act type="pre-evac" link="40" x="1277291.9470049639" y="6965594.602789361" end_time="00:00:00" />
			<leg mode="car">
			</leg>
			<act type="post-evac" link="el1" x="1287382.1755019908" y="6975627.009256612" end_time="00:00:00" />
		</plan>

	</person>

<!-- ====================================================================== -->

	<person id="174" employed="no">
		<plan score="0.0" selected="yes">
			<act type="pre-evac" link="293" x="1277262.4276922524" y="6965553.630069034" end_time="00:00:00" />
			<leg mode="car">
			</leg>
			<act type="post-evac" link="el1" x="1287382.1755019908" y="6975627.009256612" end_time="00:00:00" />
		</plan>

	</person>

<!-- ====================================================================== -->

	<person id="176" employed="no">
		<plan score="0.0" selected="yes">
			<act type="pre-evac" link="39" x="1277278.4356536972" y="6965570.028650335" end_time="00:00:00" />
			<leg mode="car">
			</leg>
			<act type="post-evac" link="el1" x="1287382.1755019908" y="6975627.009256612" end_time="00:00:00" />
		</plan>

	</person>

<!-- ====================================================================== -->

	<person id="178" employed="no">
		<plan score="0.0" selected="yes">
			<act type="pre-evac" link="293" x="1277278.1528813508" y="6965550.430702998" end_time="00:00:00" />
			<leg mode="car">
			</leg>
			<act type="post-evac" link="el1" x="1287382.1755019908" y="6975627.009256612" end_time="00:00:00" />
		</plan>

	</person>

<!-- ====================================================================== -->

	<person id="179" employed="no">
		<plan score="0.0" selected="yes">
			<act type="pre-evac" link="281" x="1277294.817176633" y="6965585.0990546" end_time="00:00:00" />
			<leg mode="car">
			</leg>
			<act type="post-evac" link="el1" x="1287382.1755019908" y="6975627.009256612" end_time="00:00:00" />