<?xml version="1.0" encoding="UTF-8"?>
<!DOCTYPE transitSchedule SYSTEM "http://www.matsim.org/files/dtd/transitSchedule_v1.dtd">
<transitSchedule>
	<transitStops>
		<stopFacility id="stop1" x="1100.0" y="2800.0" linkRefId= "20"/>
		<stopFacility id="stop2" x="1100.0" y="4800.0" linkRefId= "21"/>
		<stopFacility id="stop3" x="1100.0" y="6800.0" linkRefId= "22"/>
		<stopFacility id="stop4" x="1100.0" y="8800.0" linkRefId= "23"/>
		<stopFacility id="stop5" x="2800.0" y="8900.0" linkRefId= "16"/>
		<stopFacility id="stop6" x="4800.0" y="8900.0" linkRefId= "17"/>
		<stopFacility id="stop7" x="6800.0" y="8900.0" linkRefId= "18"/>
		<stopFacility id="stop8" x="8800.0" y="8900.0" linkRefId= "19"/>
	</transitStops>
	<transitLine id="Blue Line">
		<transitRoute id="Blue Route 0_20">
			<transportMode>pt</transportMode>
			<routeProfile>
				<stop refId="stop1" arrivalOffset="00:00:00" departureOffset="00:00:00"/>
				<stop refId="stop2" arrivalOffset="00:00:20" departureOffset="00:00:25"/>
				<stop refId="stop3" arrivalOffset="00:00:40" departureOffset="00:00:45"/>
				<stop refId="stop4" arrivalOffset="00:01:00" departureOffset="00:01:00"/>
			</routeProfile>
			<route>
				<link refId="20"/>
				<link refId="21"/>
				<link refId="22"/>
				<link refId="23"/>
			</route>
			<departures>
				<departure id="Blue0800" departureTime="08:00:00" vehicleRefId="tr_1" />
				<departure id="Blue0805" departureTime="08:05:00" vehicleRefId="tr_2" />
			</departures>
		</transitRoute>
	</transitLine>
	<transitLine id="Green Line">
		<transitRoute id="Green Route 20_24">
			<transportMode>pt</transportMode>
			<routeProfile>
				<stop refId="stop4" arrivalOffset="00:00:00" departureOffset="00:00:00"/>
				<stop refId="stop5" arrivalOffset="00:00:20" departureOffset="00:00:25"/>
				<stop refId="stop6" arrivalOffset="00:00:40" departureOffset="00:00:45"/>
				<stop refId="stop7" arrivalOffset="00:01:00" departureOffset="00:01:05"/>
				<stop refId="stop8" arrivalOffset="00:01:20" departureOffset="00:01:20"/>
			</routeProfile>
			<route>
				<link refId="23"/>
				<link refId="16"/>
				<link refId="17"/>
				<link refId="18"/>
				<link refId="19"/>
			</route>
			<departures>
				<departure id="Green0803" departureTime="08:03:25" vehicleRefId="tr_5" />
				<departure id="Green0808" departureTime="08:08:25" vehicleRefId="tr_6" />
			</departures>
		</transitRoute>
	</transitLine>
</transitSchedule>