<?xml version="1.0" encoding="UTF-8"?>
<!DOCTYPE network SYSTEM "http://www.matsim.org/files/dtd/network_v1.dtd">
<network>

<!-- ====================================================================== -->

	<nodes>
		<node id="0" x="1000.0" y="1000.0" />
		<node id="1" x="3000.0" y="1000.0" />
		<node id="10" x="1000.0" y="5000.0" />
		<node id="11" x="3000.0" y="5000.0" />
		<node id="12" x="5000.0" y="5000.0" />
		<node id="13" x="7000.0" y="5000.0" />
		<node id="14" x="9000.0" y="5000.0" />
		<node id="15" x="1000.0" y="7000.0" />
		<node id="16" x="3000.0" y="7000.0" />
		<node id="17" x="5000.0" y="7000.0" />
		<node id="18" x="7000.0" y="7000.0" />
		<node id="19" x="9000.0" y="7000.0" />
		<node id="2" x="5000.0" y="1000.0" />
		<node id="20" x="1000.0" y="9000.0" />
		<node id="21" x="3000.0" y="9000.0" />
		<node id="22" x="5000.0" y="9000.0" />
		<node id="23" x="7000.0" y="9000.0" />
		<node id="24" x="9000.0" y="9000.0" />
		<node id="3" x="7000.0" y="1000.0" />
		<node id="4" x="9000.0" y="1000.0" />
		<node id="5" x="1000.0" y="3000.0" />
		<node id="6" x="3000.0" y="3000.0" />
		<node id="7" x="5000.0" y="3000.0" />
		<node id="8" x="7000.0" y="3000.0" />
		<node id="9" x="9000.0" y="3000.0" />
		<node id="startnode_stop1" x="1150.0" y="1150.0" />
		<node id="startnode_stop6" x="1250.0" y="8950.0" />
		<node id="tr_stop1" x="1100.0" y="1100.0" />
		<node id="tr_stop10" x="8800.0" y="8900.0" />
		<node id="tr_stop2" x="1100.0" y="2800.0" />
		<node id="tr_stop3" x="1100.0" y="4800.0" />
		<node id="tr_stop4" x="1100.0" y="6800.0" />
		<node id="tr_stop5" x="1100.0" y="8800.0" />
		<node id="tr_stop6" x="1200.0" y="8900.0" />
		<node id="tr_stop7" x="2800.0" y="8900.0" />
		<node id="tr_stop8" x="4800.0" y="8900.0" />
		<node id="tr_stop9" x="6800.0" y="8900.0" />
	</nodes>

<!-- ====================================================================== -->

	<links capperiod="01:00:00" effectivecellsize="7.5" effectivelanewidth="NaN">
		<link id="0" from="0" to="1" length="2000.0" freespeed="50.0" capacity="3600.0" permlanes="1.0" oneway="1" modes="car" />
		<link id="1" from="1" to="2" length="2000.0" freespeed="50.0" capacity="3600.0" permlanes="1.0" oneway="1" modes="car" />
		<link id="10" from="12" to="13" length="2000.0" freespeed="50.0" capacity="3600.0" permlanes="1.0" oneway="1" modes="car" />
		<link id="11" from="13" to="14" length="2000.0" freespeed="50.0" capacity="3600.0" permlanes="1.0" oneway="1" modes="car" />
		<link id="12" from="15" to="16" length="2000.0" freespeed="50.0" capacity="3600.0" permlanes="1.0" oneway="1" modes="car" />
		<link id="13" from="16" to="17" length="2000.0" freespeed="50.0" capacity="3600.0" permlanes="1.0" oneway="1" modes="car" />
		<link id="14" from="17" to="18" length="2000.0" freespeed="50.0" capacity="3600.0" permlanes="1.0" oneway="1" modes="car" />
		<link id="15" from="18" to="19" length="2000.0" freespeed="50.0" capacity="3600.0" permlanes="1.0" oneway="1" modes="car" />
		<link id="16" from="20" to="21" length="2000.0" freespeed="50.0" capacity="3600.0" permlanes="1.0" oneway="1" modes="car" />
		<link id="17" from="21" to="22" length="2000.0" freespeed="50.0" capacity="3600.0" permlanes="1.0" oneway="1" modes="car" />
		<link id="18" from="22" to="23" length="2000.0" freespeed="50.0" capacity="3600.0" permlanes="1.0" oneway="1" modes="car" />
		<link id="19" from="23" to="24" length="2000.0" freespeed="50.0" capacity="3600.0" permlanes="1.0" oneway="1" modes="car" />
		<link id="2" from="2" to="3" length="2000.0" freespeed="50.0" capacity="3600.0" permlanes="1.0" oneway="1" modes="car" />
		<link id="20" from="0" to="5" length="2000.0" freespeed="50.0" capacity="3600.0" permlanes="1.0" oneway="1" modes="car" />
		<link id="21" from="5" to="10" length="2000.0" freespeed="50.0" capacity="3600.0" permlanes="1.0" oneway="1" modes="car" />
		<link id="22" from="10" to="15" length="2000.0" freespeed="50.0" capacity="3600.0" permlanes="1.0" oneway="1" modes="car" />
		<link id="23" from="15" to="20" length="2000.0" freespeed="50.0" capacity="3600.0" permlanes="1.0" oneway="1" modes="car" />
		<link id="24" from="1" to="6" length="2000.0" freespeed="50.0" capacity="3600.0" permlanes="1.0" oneway="1" modes="car" />
		<link id="25" from="6" to="11" length="2000.0" freespeed="50.0" capacity="3600.0" permlanes="1.0" oneway="1" modes="car" />
		<link id="26" from="11" to="16" length="2000.0" freespeed="50.0" capacity="3600.0" permlanes="1.0" oneway="1" modes="car" />
		<link id="27" from="16" to="21" length="2000.0" freespeed="50.0" capacity="3600.0" permlanes="1.0" oneway="1" modes="car" />
		<link id="28" from="2" to="7" length="2000.0" freespeed="50.0" capacity="3600.0" permlanes="1.0" oneway="1" modes="car" />
		<link id="29" from="7" to="12" length="2000.0" freespeed="50.0" capacity="3600.0" permlanes="1.0" oneway="1" modes="car" />
		<link id="3" from="3" to="4" length="2000.0" freespeed="50.0" capacity="3600.0" permlanes="1.0" oneway="1" modes="car" />
		<link id="30" from="12" to="17" length="2000.0" freespeed="50.0" capacity="3600.0" permlanes="1.0" oneway="1" modes="car" />
		<link id="31" from="17" to="22" length="2000.0" freespeed="50.0" capacity="3600.0" permlanes="1.0" oneway="1" modes="car" />
		<link id="32" from="3" to="8" length="2000.0" freespeed="50.0" capacity="3600.0" permlanes="1.0" oneway="1" modes="car" />
		<link id="33" from="8" to="13" length="2000.0" freespeed="50.0" capacity="3600.0" permlanes="1.0" oneway="1" modes="car" />
		<link id="34" from="13" to="18" length="2000.0" freespeed="50.0" capacity="3600.0" permlanes="1.0" oneway="1" modes="car" />
		<link id="35" from="18" to="23" length="2000.0" freespeed="50.0" capacity="3600.0" permlanes="1.0" oneway="1" modes="car" />
		<link id="36" from="4" to="9" length="2000.0" freespeed="50.0" capacity="3600.0" permlanes="1.0" oneway="1" modes="car" />
		<link id="37" from="9" to="14" length="2000.0" freespeed="50.0" capacity="3600.0" permlanes="1.0" oneway="1" modes="car" />
		<link id="38" from="14" to="19" length="2000.0" freespeed="50.0" capacity="3600.0" permlanes="1.0" oneway="1" modes="car" />
		<link id="39" from="19" to="24" length="2000.0" freespeed="50.0" capacity="3600.0" permlanes="1.0" oneway="1" modes="car" />
		<link id="4" from="5" to="6" length="2000.0" freespeed="50.0" capacity="3600.0" permlanes="1.0" oneway="1" modes="car" />
		<link id="40" from="1" to="0" length="2000.0" freespeed="50.0" capacity="3600.0" permlanes="1.0" oneway="1" modes="car" />
		<link id="41" from="2" to="1" length="2000.0" freespeed="50.0" capacity="3600.0" permlanes="1.0" oneway="1" modes="car" />
		<link id="42" from="3" to="2" length="2000.0" freespeed="50.0" capacity="3600.0" permlanes="1.0" oneway="1" modes="car" />
		<link id="43" from="4" to="3" length="2000.0" freespeed="50.0" capacity="3600.0" permlanes="1.0" oneway="1" modes="car" />
		<link id="44" from="6" to="5" length="2000.0" freespeed="50.0" capacity="3600.0" permlanes="1.0" oneway="1" modes="car" />
		<link id="45" from="7" to="6" length="2000.0" freespeed="50.0" capacity="3600.0" permlanes="1.0" oneway="1" modes="car" />
		<link id="46" from="8" to="7" length="2000.0" freespeed="50.0" capacity="3600.0" permlanes="1.0" oneway="1" modes="car" />
		<link id="47" from="9" to="8" length="2000.0" freespeed="50.0" capacity="3600.0" permlanes="1.0" oneway="1" modes="car" />
		<link id="48" from="11" to="10" length="2000.0" freespeed="50.0" capacity="3600.0" permlanes="1.0" oneway="1" modes="car" />
		<link id="49" from="12" to="11" length="2000.0" freespeed="50.0" capacity="3600.0" permlanes="1.0" oneway="1" modes="car" />
		<link id="5" from="6" to="7" length="2000.0" freespeed="50.0" capacity="3600.0" permlanes="1.0" oneway="1" modes="car" />
		<link id="50" from="13" to="12" length="2000.0" freespeed="50.0" capacity="3600.0" permlanes="1.0" oneway="1" modes="car" />
		<link id="51" from="14" to="13" length="2000.0" freespeed="50.0" capacity="3600.0" permlanes="1.0" oneway="1" modes="car" />
		<link id="52" from="16" to="15" length="2000.0" freespeed="50.0" capacity="3600.0" permlanes="1.0" oneway="1" modes="car" />
		<link id="53" from="17" to="16" length="2000.0" freespeed="50.0" capacity="3600.0" permlanes="1.0" oneway="1" modes="car" />
		<link id="54" from="18" to="17" length="2000.0" freespeed="50.0" capacity="3600.0" permlanes="1.0" oneway="1" modes="car" />
		<link id="55" from="19" to="18" length="2000.0" freespeed="50.0" capacity="3600.0" permlanes="1.0" oneway="1" modes="car" />
		<link id="56" from="21" to="20" length="2000.0" freespeed="50.0" capacity="3600.0" permlanes="1.0" oneway="1" modes="car" />
		<link id="57" from="22" to="21" length="2000.0" freespeed="50.0" capacity="3600.0" permlanes="1.0" oneway="1" modes="car" />
		<link id="58" from="23" to="22" length="2000.0" freespeed="50.0" capacity="3600.0" permlanes="1.0" oneway="1" modes="car" />
		<link id="59" from="24" to="23" length="2000.0" freespeed="50.0" capacity="3600.0" permlanes="1.0" oneway="1" modes="car" />
		<link id="6" from="7" to="8" length="2000.0" freespeed="50.0" capacity="3600.0" permlanes="1.0" oneway="1" modes="car" />
		<link id="60" from="5" to="0" length="2000.0" freespeed="50.0" capacity="3600.0" permlanes="1.0" oneway="1" modes="car" />
		<link id="61" from="10" to="5" length="2000.0" freespeed="50.0" capacity="3600.0" permlanes="1.0" oneway="1" modes="car" />
		<link id="62" from="15" to="10" length="2000.0" freespeed="50.0" capacity="3600.0" permlanes="1.0" oneway="1" modes="car" />
		<link id="63" from="20" to="15" length="2000.0" freespeed="50.0" capacity="3600.0" permlanes="1.0" oneway="1" modes="car" />
		<link id="64" from="6" to="1" length="2000.0" freespeed="50.0" capacity="3600.0" permlanes="1.0" oneway="1" modes="car" />
		<link id="65" from="11" to="6" length="2000.0" freespeed="50.0" capacity="3600.0" permlanes="1.0" oneway="1" modes="car" />
		<link id="66" from="16" to="11" length="2000.0" freespeed="50.0" capacity="3600.0" permlanes="1.0" oneway="1" modes="car" />
		<link id="67" from="21" to="16" length="2000.0" freespeed="50.0" capacity="3600.0" permlanes="1.0" oneway="1" modes="car" />
		<link id="68" from="7" to="2" length="2000.0" freespeed="50.0" capacity="3600.0" permlanes="1.0" oneway="1" modes="car" />
		<link id="69" from="12" to="7" length="2000.0" freespeed="50.0" capacity="3600.0" permlanes="1.0" oneway="1" modes="car" />
		<link id="7" from="8" to="9" length="2000.0" freespeed="50.0" capacity="3600.0" permlanes="1.0" oneway="1" modes="car" />
		<link id="70" from="17" to="12" length="2000.0" freespeed="50.0" capacity="3600.0" permlanes="1.0" oneway="1" modes="car" />
		<link id="71" from="22" to="17" length="2000.0" freespeed="50.0" capacity="3600.0" permlanes="1.0" oneway="1" modes="car" />
		<link id="72" from="8" to="3" length="2000.0" freespeed="50.0" capacity="3600.0" permlanes="1.0" oneway="1" modes="car" />
		<link id="73" from="13" to="8" length="2000.0" freespeed="50.0" capacity="3600.0" permlanes="1.0" oneway="1" modes="car" />
		<link id="74" from="18" to="13" length="2000.0" freespeed="50.0" capacity="3600.0" permlanes="1.0" oneway="1" modes="car" />
		<link id="75" from="23" to="18" length="2000.0" freespeed="50.0" capacity="3600.0" permlanes="1.0" oneway="1" modes="car" />
		<link id="76" from="9" to="4" length="2000.0" freespeed="50.0" capacity="3600.0" permlanes="1.0" oneway="1" modes="car" />
		<link id="77" from="14" to="9" length="2000.0" freespeed="50.0" capacity="3600.0" permlanes="1.0" oneway="1" modes="car" />
		<link id="78" from="19" to="14" length="2000.0" freespeed="50.0" capacity="3600.0" permlanes="1.0" oneway="1" modes="car" />
		<link id="79" from="24" to="19" length="2000.0" freespeed="50.0" capacity="3600.0" permlanes="1.0" oneway="1" modes="car" />
		<link id="8" from="10" to="11" length="2000.0" freespeed="50.0" capacity="3600.0" permlanes="1.0" oneway="1" modes="car" />
		<link id="9" from="11" to="12" length="2000.0" freespeed="50.0" capacity="3600.0" permlanes="1.0" oneway="1" modes="car" />
		<link id="tr_0" from="startnode_stop1" to="tr_stop1" length="70.71067811865476" freespeed="8.333333333333334" capacity="500.0" permlanes="1.0" oneway="1" modes="pt" />
		<link id="tr_1" from="tr_stop1" to="startnode_stop1" length="70.71067811865476" freespeed="8.333333333333334" capacity="500.0" permlanes="1.0" oneway="1" modes="pt" />
		<link id="tr_10" from="tr_stop8" to="tr_stop9" length="2000.0" freespeed="8.333333333333334" capacity="500.0" permlanes="1.0" oneway="1" modes="pt" />
		<link id="tr_11" from="tr_stop9" to="tr_stop10" length="2000.0" freespeed="8.333333333333334" capacity="500.0" permlanes="1.0" oneway="1" modes="pt" />
		<link id="tr_2" from="tr_stop1" to="tr_stop2" length="1700.0" freespeed="8.333333333333334" capacity="500.0" permlanes="1.0" oneway="1" modes="pt" />
		<link id="tr_3" from="tr_stop2" to="tr_stop3" length="2000.0" freespeed="8.333333333333334" capacity="500.0" permlanes="1.0" oneway="1" modes="pt" />
		<link id="tr_4" from="tr_stop3" to="tr_stop4" length="2000.0" freespeed="8.333333333333334" capacity="500.0" permlanes="1.0" oneway="1" modes="pt" />
		<link id="tr_5" from="tr_stop4" to="tr_stop5" length="2000.0" freespeed="8.333333333333334" capacity="500.0" permlanes="1.0" oneway="1" modes="pt" />
		<link id="tr_6" from="startnode_stop6" to="tr_stop6" length="70.71067811865476" freespeed="8.333333333333334" capacity="500.0" permlanes="1.0" oneway="1" modes="pt" />
		<link id="tr_7" from="tr_stop6" to="startnode_stop6" length="70.71067811865476" freespeed="8.333333333333334" capacity="500.0" permlanes="1.0" oneway="1" modes="pt" />
		<link id="tr_8" from="tr_stop6" to="tr_stop7" length="1600.0" freespeed="8.333333333333334" capacity="500.0" permlanes="1.0" oneway="1" modes="pt" />
		<link id="tr_9" from="tr_stop7" to="tr_stop8" length="2000.0" freespeed="8.333333333333334" capacity="500.0" permlanes="1.0" oneway="1" modes="pt" />
	</links>

<!-- ====================================================================== -->

</network>
