<?xml version="1.0" encoding="UTF-8"?>
<!DOCTYPE transitSchedule SYSTEM "http://www.matsim.org/files/dtd/transitSchedule_v1.dtd">
<transitSchedule>
	<transitStops>
		<stopFacility id="stop1" x="1100.0" y="1100.0" linkRefId= "20"/>
		<stopFacility id="stop2" x="1100.0" y="2800.0" linkRefId= "21"/>
		<stopFacility id="stop3" x="1100.0" y="4800.0" linkRefId= "22"/>
		<stopFacility id="stop4" x="1100.0" y="6800.0" linkRefId= "23"/>
		<stopFacility id="stop5" x="1100.0" y="8800.0" linkRefId= "23"/>
		
		<stopFacility id="stop6" x="1200.0" y="8900.0" linkRefId= "16"/>
		<stopFacility id="stop7" x="2800.0" y="8900.0" linkRefId= "17"/>
		<stopFacility id="stop8" x="4800.0" y="8900.0" linkRefId= "18"/>
		<stopFacility id="stop9" x="6800.0" y="8900.0" linkRefId= "19"/>
		<stopFacility id="stop10" x="8800.0" y="8900.0" linkRefId= "9"/>
		
		<stopFacility id="stop11" x="4800.0" y="950.0" linkRefId= "1"/>
		<stopFacility id="stop12" x="6800.0" y="950.0" linkRefId= "2"/>
		<stopFacility id="stop13" x="8800.0" y="950.0" linkRefId= "3"/>
		<stopFacility id="stop14" x="9100.0" y="2800.0" linkRefId= "36"/>
		<stopFacility id="stop15" x="9100.0" y="4800.0" linkRefId= "37"/>
		<stopFacility id="stop16" x="9100.0" y="6800.0" linkRefId= "38"/>
		<stopFacility id="stop17" x="9100.0" y="8800.0" linkRefId= "39"/>
	</transitStops>
	<transitLine id="Blue Line">
		<transitRoute id="Blue Route 0_20">
			<transportMode>pt</transportMode>
			<routeProfile>
				<stop refId="stop1" arrivalOffset="00:00:00" departureOffset="00:00:00"/>
				<stop refId="stop2" arrivalOffset="00:00:20" departureOffset="00:00:25"/>
				<stop refId="stop3" arrivalOffset="00:00:40" departureOffset="00:00:45"/>
				<stop refId="stop4" arrivalOffset="00:01:00" departureOffset="00:01:00"/>
				<stop refId="stop5" arrivalOffset="00:01:00" departureOffset="00:01:00"/>
			</routeProfile>
			<route>
				<link refId="20"/>
				<link refId="21"/>
				<link refId="22"/>
				<link refId="23"/>
				<link refId="23"/>

			</route>
			<departures>
				<departure id="Blue0800" departureTime="08:00:00" vehicleRefId="tr_1" />
				<departure id="Blue0805" departureTime="08:05:00" vehicleRefId="tr_2" />
			</departures>
		</transitRoute>
	</transitLine>
	<transitLine id="Green Line">
		<transitRoute id="Green Route 20_24">
			<transportMode>pt</transportMode>
			<routeProfile>
				<stop refId="stop6" arrivalOffset="00:00:00" departureOffset="00:00:00"/>
				<stop refId="stop7" arrivalOffset="00:00:20" departureOffset="00:00:25"/>
				<stop refId="stop8" arrivalOffset="00:00:40" departureOffset="00:00:45"/>
				<stop refId="stop9" arrivalOffset="00:01:00" departureOffset="00:01:05"/>
				<stop refId="stop10" arrivalOffset="00:01:20" departureOffset="00:01:20"/>
			</routeProfile>
			<route>
				<link refId="23"/>
				<link refId="16"/>
				<link refId="17"/>
				<link refId="18"/>
				<link refId="19"/>
			</route>
			<departures>
				<departure id="Green0803" departureTime="08:03:25" vehicleRefId="tr_5" />
				<departure id="Green0808" departureTime="08:08:25" vehicleRefId="tr_6" />
			</departures>
		</transitRoute>
	</transitLine>
	<!-- 
	<transitLine id="Red Line">
		<transitRoute id="Red Route 20_24">
			<transportMode>pt</transportMode>
			<routeProfile>
				<stop refId="stop1" arrivalOffset="00:00:00" departureOffset="00:00:00"/>
				<stop refId="stop9" arrivalOffset="00:00:20" departureOffset="00:00:25"/>
				<stop refId="stop10" arrivalOffset="00:00:40" departureOffset="00:00:45"/>
				<stop refId="stop11" arrivalOffset="00:01:00" departureOffset="00:01:05"/>
				<stop refId="stop12" arrivalOffset="00:01:20" departureOffset="00:01:25"/>
				<stop refId="stop13" arrivalOffset="00:01:40" departureOffset="00:01:45"/>
				<stop refId="stop14" arrivalOffset="00:02:00" departureOffset="00:02:05"/>
				<stop refId="stop15" arrivalOffset="00:02:20" departureOffset="00:02:25"/>
				<stop refId="stop16" arrivalOffset="00:02:40" departureOffset="00:02:45"/>
				<stop refId="stop17" arrivalOffset="00:03:00" departureOffset="00:03:05"/>
			</routeProfile>
			<route>
				<link refId="20"/>
				<link refId="4"/>
				<link refId="64"/>
				<link refId="1"/>
				<link refId="2"/>
				<link refId="3"/>
				<link refId="36"/>
				<link refId="37"/>
				<link refId="38"/>
				<link refId="39"/>
			</route>
			<departures>
				<departure id="Red0800" departureTime="08:00:00" vehicleRefId="tr_10"/>
				<departure id="Red0805" departureTime="08:05:00" vehicleRefId="tr_11"/>
			</departures>
		</transitRoute>
	</transitLine>
	 -->
</transitSchedule>