<?xml version="1.0" encoding="UTF-8"?>
<!DOCTYPE transitSchedule SYSTEM "http://www.matsim.org/files/dtd/transitSchedule_v1.dtd">

<transitSchedule>
	<transitStops>
		<stopFacility id="0" x="1000.0" y="1000.0"/>
		<stopFacility id="1" x="3000.0" y="1000.0"/>
		<stopFacility id="10" x="1000.0" y="5000.0"/>
		<stopFacility id="11" x="3000.0" y="5000.0"/>
		<stopFacility id="12" x="5000.0" y="5000.0"/>
		<stopFacility id="13" x="7000.0" y="5000.0"/>
		<stopFacility id="14" x="9000.0" y="5000.0"/>
		<stopFacility id="15" x="1000.0" y="7000.0"/>
		<stopFacility id="16" x="3000.0" y="7000.0"/>
		<stopFacility id="17" x="5000.0" y="7000.0"/>
		<stopFacility id="18" x="7000.0" y="7000.0"/>
		<stopFacility id="19" x="9000.0" y="7000.0"/>
		<stopFacility id="2" x="5000.0" y="1000.0"/>
		<stopFacility id="20" x="1000.0" y="9000.0"/>
		<stopFacility id="21" x="3000.0" y="9000.0"/>
		<stopFacility id="22" x="5000.0" y="9000.0"/>
		<stopFacility id="23" x="7000.0" y="9000.0"/>
		<stopFacility id="24" x="9000.0" y="9000.0"/>
		<stopFacility id="3" x="7000.0" y="1000.0"/>
		<stopFacility id="4" x="9000.0" y="1000.0"/>
		<stopFacility id="5" x="1000.0" y="3000.0"/>
		<stopFacility id="6" x="3000.0" y="3000.0"/>
		<stopFacility id="7" x="5000.0" y="3000.0"/>
		<stopFacility id="8" x="7000.0" y="3000.0"/>
		<stopFacility id="9" x="9000.0" y="3000.0"/>
	</transitStops>
	<transitLine id="Tram 1 direction 0">
		<transitRoute id="Tram 1 direction 0-0">
			<transportMode>pt</transportMode>
			<routeProfile>
				<stop refId="20" arrivalOffset="00:00:00" departureOffset="00:00:00"/>
				<stop refId="15" arrivalOffset="00:10:00" departureOffset="00:10:00"/>
				<stop refId="10" arrivalOffset="00:20:00" departureOffset="00:20:00"/>
				<stop refId="5" arrivalOffset="00:30:00" departureOffset="00:30:00"/>
				<stop refId="0" arrivalOffset="00:40:00" departureOffset="00:40:00"/>
			</routeProfile>
			<departures>
				<departure id="3" departureTime="12:00:00"/>
				<departure id="2" departureTime="11:00:00"/>
				<departure id="10" departureTime="19:00:00"/>
				<departure id="1" departureTime="10:00:00"/>
				<departure id="0" departureTime="09:00:00"/>
				<departure id="7" departureTime="16:00:00"/>
				<departure id="6" departureTime="15:00:00"/>
				<departure id="5" departureTime="14:00:00"/>
				<departure id="4" departureTime="13:00:00"/>
				<departure id="9" departureTime="18:00:00"/>
				<departure id="8" departureTime="17:00:00"/>
			</departures>
		</transitRoute>
		<transitRoute id="Tram 1 direction 20-20">
			<transportMode>pt</transportMode>
			<routeProfile>
				<stop refId="0" arrivalOffset="00:00:00" departureOffset="00:00:00"/>
				<stop refId="5" arrivalOffset="00:10:00" departureOffset="00:10:00"/>
				<stop refId="10" arrivalOffset="00:20:00" departureOffset="00:20:00"/>
				<stop refId="15" arrivalOffset="00:30:00" departureOffset="00:30:00"/>
				<stop refId="20" arrivalOffset="00:40:00" departureOffset="00:40:00"/>
			</routeProfile>
			<departures>
				<departure id="3" departureTime="12:00:00"/>
				<departure id="2" departureTime="11:00:00"/>
				<departure id="10" departureTime="19:00:00"/>
				<departure id="1" departureTime="10:00:00"/>
				<departure id="0" departureTime="09:00:00"/>
				<departure id="7" departureTime="16:00:00"/>
				<departure id="6" departureTime="15:00:00"/>
				<departure id="5" departureTime="14:00:00"/>
				<departure id="4" departureTime="13:00:00"/>
				<departure id="9" departureTime="18:00:00"/>
				<departure id="8" departureTime="17:00:00"/>
			</departures>
		</transitRoute>
	</transitLine>
	<transitLine id="Tram 2 direction 20">
		<transitRoute id="Tram 2 direction 20-20">
			<transportMode>pt</transportMode>
			<routeProfile>
				<stop refId="24" arrivalOffset="00:00:00" departureOffset="00:00:00"/>
				<stop refId="23" arrivalOffset="00:10:00" departureOffset="00:10:00"/>
				<stop refId="22" arrivalOffset="00:20:00" departureOffset="00:20:00"/>
				<stop refId="21" arrivalOffset="00:30:00" departureOffset="00:30:00"/>
				<stop refId="20" arrivalOffset="00:40:00" departureOffset="00:40:00"/>
			</routeProfile>
			<departures>
				<departure id="3" departureTime="12:00:00"/>
				<departure id="2" departureTime="11:00:00"/>
				<departure id="10" departureTime="19:00:00"/>
				<departure id="1" departureTime="10:00:00"/>
				<departure id="0" departureTime="09:00:00"/>
				<departure id="7" departureTime="16:00:00"/>
				<departure id="6" departureTime="15:00:00"/>
				<departure id="5" departureTime="14:00:00"/>
				<departure id="4" departureTime="13:00:00"/>
				<departure id="9" departureTime="18:00:00"/>
				<departure id="8" departureTime="17:00:00"/>
			</departures>
		</transitRoute>
		<transitRoute id="Tram 2 direction 24-24">
			<transportMode>pt</transportMode>
			<routeProfile>
				<stop refId="20" arrivalOffset="00:00:00" departureOffset="00:00:00"/>
				<stop refId="21" arrivalOffset="00:10:00" departureOffset="00:10:00"/>
				<stop refId="22" arrivalOffset="00:20:00" departureOffset="00:20:00"/>
				<stop refId="23" arrivalOffset="00:30:00" departureOffset="00:30:00"/>
				<stop refId="24" arrivalOffset="00:40:00" departureOffset="00:40:00"/>
			</routeProfile>
			<departures>
				<departure id="3" departureTime="12:00:00"/>
				<departure id="2" departureTime="11:00:00"/>
				<departure id="10" departureTime="19:00:00"/>
				<departure id="1" departureTime="10:00:00"/>
				<departure id="0" departureTime="09:00:00"/>
				<departure id="7" departureTime="16:00:00"/>
				<departure id="6" departureTime="15:00:00"/>
				<departure id="5" departureTime="14:00:00"/>
				<departure id="4" departureTime="13:00:00"/>
				<departure id="9" departureTime="18:00:00"/>
				<departure id="8" departureTime="17:00:00"/>
			</departures>
		</transitRoute>
	</transitLine>
	<transitLine id="Tram 3 direction 0">
		<transitRoute id="Tram 3 direction 0-0">
			<transportMode>pt</transportMode>
			<routeProfile>
				<stop refId="24" arrivalOffset="00:00:00" departureOffset="00:00:00"/>
				<stop refId="19" arrivalOffset="00:10:00" departureOffset="00:10:00"/>
				<stop refId="14" arrivalOffset="00:20:00" departureOffset="00:20:00"/>
				<stop refId="9" arrivalOffset="00:30:00" departureOffset="00:30:00"/>
				<stop refId="4" arrivalOffset="00:40:00" departureOffset="00:40:00"/>
				<stop refId="3" arrivalOffset="00:50:00" departureOffset="00:50:00"/>
				<stop refId="2" arrivalOffset="01:00:00" departureOffset="01:00:00"/>
				<stop refId="1" arrivalOffset="01:10:00" departureOffset="01:10:00"/>
				<stop refId="6" arrivalOffset="01:20:00" departureOffset="01:20:00"/>
				<stop refId="5" arrivalOffset="01:30:00" departureOffset="01:30:00"/>
				<stop refId="0" arrivalOffset="01:40:00" departureOffset="01:40:00"/>
			</routeProfile>
			<departures>
				<departure id="3" departureTime="12:00:00"/>
				<departure id="2" departureTime="11:00:00"/>
				<departure id="10" departureTime="19:00:00"/>
				<departure id="1" departureTime="10:00:00"/>
				<departure id="0" departureTime="09:00:00"/>
				<departure id="7" departureTime="16:00:00"/>
				<departure id="6" departureTime="15:00:00"/>
				<departure id="5" departureTime="14:00:00"/>
				<departure id="4" departureTime="13:00:00"/>
				<departure id="9" departureTime="18:00:00"/>
				<departure id="8" departureTime="17:00:00"/>
			</departures>
		</transitRoute>
		<transitRoute id="Tram 3 direction 24-24">
			<transportMode>pt</transportMode>
			<routeProfile>
				<stop refId="0" arrivalOffset="00:00:00" departureOffset="00:00:00"/>
				<stop refId="5" arrivalOffset="00:10:00" departureOffset="00:10:00"/>
				<stop refId="6" arrivalOffset="00:20:00" departureOffset="00:20:00"/>
				<stop refId="1" arrivalOffset="00:30:00" departureOffset="00:30:00"/>
				<stop refId="2" arrivalOffset="00:40:00" departureOffset="00:40:00"/>
				<stop refId="3" arrivalOffset="00:50:00" departureOffset="00:50:00"/>
				<stop refId="4" arrivalOffset="01:00:00" departureOffset="01:00:00"/>
				<stop refId="9" arrivalOffset="01:10:00" departureOffset="01:10:00"/>
				<stop refId="14" arrivalOffset="01:20:00" departureOffset="01:20:00"/>
				<stop refId="19" arrivalOffset="01:30:00" departureOffset="01:30:00"/>
				<stop refId="24" arrivalOffset="01:40:00" departureOffset="01:40:00"/>
			</routeProfile>
			<departures>
				<departure id="3" departureTime="12:00:00"/>
				<departure id="2" departureTime="11:00:00"/>
				<departure id="10" departureTime="19:00:00"/>
				<departure id="1" departureTime="10:00:00"/>
				<departure id="0" departureTime="09:00:00"/>
				<departure id="7" departureTime="16:00:00"/>
				<departure id="6" departureTime="15:00:00"/>
				<departure id="5" departureTime="14:00:00"/>
				<departure id="4" departureTime="13:00:00"/>
				<departure id="9" departureTime="18:00:00"/>
				<departure id="8" departureTime="17:00:00"/>
			</departures>
		</transitRoute>
	</transitLine>
</transitSchedule>