<?xml version="1.0" encoding="UTF-8"?>

<vehicleDefinitions xmlns="http://www.matsim.org/files/dtd"
 xmlns:xsi="http://www.w3.org/2001/XMLSchema-instance"
 xsi:schemaLocation="http://www.matsim.org/files/dtd http://www.matsim.org/files/dtd/vehicleDefinitions_v1.0.xsd">
	<vehicleType id="dummy">
		<description>Small Train</description>
		<capacity>
			<seats persons="100"/>
			<standingRoom persons="0"/>
		</capacity>
		<length meter="50.0"/>
		<accessTime secondsPerPerson="0.5"/>
		<egressTime secondsPerPerson="0.5"/>
		<doorOperation mode="serial"/>
	</vehicleType>
	<vehicle id="dummy_1" type="dummy"/>
</vehicleDefinitions>
