<?xml version="1.0" encoding="utf-8"?>
<!DOCTYPE facilities SYSTEM "http://www.matsim.org/files/dtd/facilities_v1.dtd">

<facilities name="test facilities for triangle network">

<!-- ====================================================================== -->

	<facility id="1" x="60.0" y="110.0">
		<activity type="home">
			<capacity value="201" />
			<opentime day="wk" start_time="00:00:00" end_time="24:00:00" />
		</activity>

	</facility>

<!-- ====================================================================== -->

	<facility id="10" x="110.0" y="270.0">
		<activity type="education">
			<capacity value="201" />
			<opentime day="wkday" start_time="13:00:00" end_time="17:00:00" />
			<opentime day="wkday" start_time="08:00:00" end_time="12:00:00" />
		</activity>

	</facility>

<!-- ====================================================================== -->

	<facility id="11" x="90.0" y="170.0">
		<activity type="education">
			<capacity value="201" />
			<opentime day="wkday" start_time="13:00:00" end_time="17:00:00" />
			<opentime day="wkday" start_time="08:00:00" end_time="12:00:00" />
		</activity>

		<activity type="shop">
			<capacity value="201" />
			<opentime day="sat" start_time="09:00:00" end_time="17:00:00" />
			<opentime day="wkday" start_time="13:30:00" end_time="20:00:00" />
			<opentime day="wkday" start_time="08:30:00" end_time="12:00:00" />
		</activity>

	</facility>

<!-- ====================================================================== -->

	<facility id="12" x="130.0" y="230.0">
		<activity type="education">
			<capacity value="201" />
			<opentime day="wkday" start_time="13:00:00" end_time="17:00:00" />
			<opentime day="wkday" start_time="08:00:00" end_time="12:00:00" />
		</activity>

		<activity type="leisure">
			<capacity value="201" />
			<opentime day="wkday" start_time="17:00:00" end_time="24:00:00" />
			<opentime day="wkend" start_time="20:00:00" end_time="24:00:00" />
		</activity>

	</facility>

<!-- ====================================================================== -->

	<facility id="13" x="240.0" y="200.0">
		<activity type="shop">
			<capacity value="201" />
			<opentime day="sat" start_time="09:00:00" end_time="17:00:00" />
			<opentime day="wkday" start_time="13:30:00" end_time="20:00:00" />
			<opentime day="wkday" start_time="08:30:00" end_time="12:00:00" />
		</activity>

	</facility>

<!-- ====================================================================== -->

	<facility id="14" x="10.0" y="50.0">
		<activity type="leisure">
			<capacity value="201" />
			<opentime day="wkday" start_time="17:00:00" end_time="24:00:00" />
			<opentime day="wkend" start_time="20:00:00" end_time="24:00:00" />
		</activity>

		<activity type="shop">
			<capacity value="201" />
			<opentime day="sat" start_time="09:00:00" end_time="17:00:00" />
			<opentime day="wkday" start_time="13:30:00" end_time="20:00:00" />
			<opentime day="wkday" start_time="08:30:00" end_time="12:00:00" />
		</activity>

	</facility>

<!-- ====================================================================== -->

	<facility id="15" x="260.0" y="110.0">
		<activity type="leisure">
			<capacity value="201" />
			<opentime day="wkday" start_time="17:00:00" end_time="24:00:00" />
			<opentime day="wkend" start_time="20:00:00" end_time="24:00:00" />
		</activity>

	</facility>

<!-- ====================================================================== -->

	<facility id="2" x="310.0" y="70.0">
		<activity type="home">
			<capacity value="201" />
			<opentime day="wk" start_time="00:00:00" end_time="24:00:00" />
		</activity>

		<activity type="work">
			<capacity value="201" />
			<opentime day="wkday" start_time="08:00:00" end_time="18:00:00" />
		</activity>

	</facility>

<!-- ====================================================================== -->

	<facility id="3" x="120.0" y="0.0">
		<activity type="education">
			<capacity value="201" />
			<opentime day="wkday" start_time="13:00:00" end_time="17:00:00" />
			<opentime day="wkday" start_time="08:00:00" end_time="12:00:00" />
		</activity>

		<activity type="home">
			<capacity value="201" />
			<opentime day="wk" start_time="00:00:00" end_time="24:00:00" />
		</activity>

	</facility>

<!-- ====================================================================== -->

	<facility id="4" x="310.0" y="150.0">
		<activity type="home">
			<capacity value="201" />
			<opentime day="wk" start_time="00:00:00" end_time="24:00:00" />
		</activity>

		<activity type="shop">
			<capacity value="201" />
			<opentime day="sat" start_time="09:00:00" end_time="17:00:00" />
			<opentime day="wkday" start_time="13:30:00" end_time="20:00:00" />
			<opentime day="wkday" start_time="08:30:00" end_time="12:00:00" />
		</activity>

	</facility>

<!-- ====================================================================== -->

	<facility id="5" x="200.0" y="0.0">
		<activity type="home">
			<capacity value="201" />
			<opentime day="wk" start_time="00:00:00" end_time="24:00:00" />
		</activity>

		<activity type="leisure">
			<capacity value="201" />
			<opentime day="wkday" start_time="17:00:00" end_time="24:00:00" />
			<opentime day="wkend" start_time="20:00:00" end_time="24:00:00" />
		</activity>

	</facility>

<!-- ====================================================================== -->

	<facility id="6" x="330.0" y="30.0">
		<activity type="work">
			<capacity value="201" />
			<opentime day="wkday" start_time="08:00:00" end_time="18:00:00" />
		</activity>

	</facility>

<!-- ====================================================================== -->

	<facility id="7" x="290.0" y="0.0">
		<activity type="education">
			<capacity value="201" />
			<opentime day="wkday" start_time="13:00:00" end_time="17:00:00" />
			<opentime day="wkday" start_time="08:00:00" end_time="12:00:00" />
		</activity>

		<activity type="work">
			<capacity value="201" />
			<opentime day="wkday" start_time="08:00:00" end_time="18:00:00" />
		</activity>

	</facility>

<!-- ====================================================================== -->

	<facility id="8" x="50.0" y="0.0">
		<activity type="shop">
			<capacity value="201" />
			<opentime day="sat" start_time="09:00:00" end_time="17:00:00" />
			<opentime day="wkday" start_time="13:30:00" end_time="20:00:00" />
			<opentime day="wkday" start_time="08:30:00" end_time="12:00:00" />
		</activity>

		<activity type="work">
			<capacity value="201" />
			<opentime day="wkday" start_time="08:00:00" end_time="18:00:00" />
		</activity>

	</facility>

<!-- ====================================================================== -->

	<facility id="9" x="250.0" y="270.0">
		<activity type="leisure">
			<capacity value="201" />
			<opentime day="wkday" start_time="17:00:00" end_time="24:00:00" />
			<opentime day="wkend" start_time="20:00:00" end_time="24:00:00" />
		</activity>

		<activity type="work">
			<capacity value="201" />
			<opentime day="wkday" start_time="08:00:00" end_time="18:00:00" />
		</activity>

	</facility>

<!-- ====================================================================== -->

</facilities>
