<?xml version="1.0" encoding="utf-8"?>
<!DOCTYPE plans SYSTEM "http://www.matsim.org/files/dtd/plans_v4.dtd">

<plans>

<!-- ====================================================================== -->

	<person id="0" employed="no">
		<plan selected="yes">
		<act type="h" x="-1.2297450295911965" y="-1.4501338584158903" end_time="00:00:00" />
			<leg mode="car">
			</leg>
			<act type="h" x="5.82239249519944" y="-1.5551652578842132" />
		</plan>

	</person>

<!-- ====================================================================== -->

	<person id="1" employed="no">
		<plan selected="yes">
			<act type="h" x="-1.3268066423530758" y="-2.103698617967" end_time="00:00:00" />
			<leg mode="car">
			</leg>
			<act type="h" x="5.6320260569202345" y="-2.3292284871779" />
		</plan>

	</person>

<!-- ====================================================================== -->

	<person id="10" employed="no">
		<plan selected="yes">
			<act type="h" x="-1.065064341647681" y="-2.849176575109502" end_time="00:00:01" />
			<leg mode="car">
			</leg>
			<act type="h" x="5.016200709045668" y="-3.599320162446481" />
		</plan>

	</person>

<!-- ====================================================================== -->

	<person id="100" employed="no">
		<plan selected="yes">
			<act type="h" x="1.4673409840606724" y="-4.597535541130477" end_time="00:00:14" />
			<leg mode="car">
			</leg>
			<act type="h" x="1.4661681672079043" y="-4.108285696824052" />
		</plan>

	</person>

<!-- ====================================================================== -->

	<person id="101" employed="no">
		<plan selected="yes">
			<act type="h" x="2.5920601338346665" y="-4.700641119907219" end_time="00:00:14" />
			<leg mode="car">
			</leg>
			<act type="h" x="2.5775280017384397" y="-4.427567016268427" />
		</plan>

	</person>

<!-- ====================================================================== -->

	<person id="11" employed="no">
		<plan selected="yes">
			<act type="h" x="-0.9389999603102193" y="-2.296933990448799" end_time="00:00:01" />
			<leg mode="car">
			</leg>
			<act type="h" x="5.260326076003774" y="-2.954228901065301" />
		</plan>

	</person>

<!-- ====================================================================== -->

	<person id="12" employed="no">
		<plan selected="yes">
			<act type="h" x="-1.4653616852815334" y="-1.0031390971559204" end_time="00:00:01" />
			<leg mode="car">
			</leg>
			<act type="h" x="5.948802930133677" y="-1.3087740876688392" />
		</plan>

	</person>

<!-- ====================================================================== -->

	<person id="13" employed="no">
		<plan selected="yes">
			<act type="h" x="-1.5099723418652555" y="-1.8525198653131847" end_time="00:00:01" />
			<leg mode="car">
			</leg>
			<act type="h" x="5.7691699870681195" y="-2.5563270901245123" />
		</plan>

	</person>

<!-- ====================================================================== -->

	<person id="14" employed="no">
		<plan selected="yes">
			<act type="h" x="-1.463425694621656" y="-0.39837867976109714" end_time="00:00:02" />
			<leg mode="car">
			</leg>
			<act type="h" x="5.403700963166687" y="-1.8688128334679637" />
		</plan>

	</person>

<!-- ====================================================================== -->

	<person id="15" employed="no">
		<plan selected="yes">
			<act type="h" x="-1.0824097605847043" y="-1.351808366231793" end_time="00:00:02" />
			<leg mode="car">
			</leg>
			<act type="h" x="6.021379771073596" y="-1.7898475929125994" />
		</plan>

	</person>

<!-- ====================================================================== -->

	<person id="16" employed="no">
		<plan selected="yes">
			<act type="h" x="-1.052446762565527" y="-2.6703197732930035" end_time="00:00:02" />
			<leg mode="car">
			</leg>
			<act type="h" x="5.434202955741932" y="-3.0116186184527245" />
		</plan>

	</person>

<!-- ====================================================================== -->

	<person id="17" employed="no">
		<plan selected="yes">
			<act type="h" x="-2.045504563404686" y="-0.7429875677313628" end_time="00:00:02" />
			<leg mode="car">
			</leg>
			<act type="h" x="6.297723544964379" y="-1.1427347494141666" />
		</plan>

	</person>

<!-- ====================================================================== -->

	<person id="18" employed="no">
		<plan selected="yes">
			<act type="h" x="-1.3549727230828457" y="-1.8623315756565526" end_time="00:00:02" />
			<leg mode="car">
			</leg>
			<act type="h" x="5.3985676096919475" y="-1.7212081630167342" />
		</plan>

	</person>

<!-- ====================================================================== -->

	<person id="19" employed="no">
		<plan selected="yes">
			<act type="h" x="-1.702215832416548" y="-1.3920539895937687" end_time="00:00:02" />
			<leg mode="car">
			</leg>
			<act type="h" x="6.127175047367078" y="-1.5907856529530582" />
		</plan>

	</person>

<!-- ====================================================================== -->

	<person id="2" employed="no">
		<plan selected="yes">
			<act type="h" x="-1.4619592660233158" y="-2.8834071689890117" end_time="00:00:00" />
			<leg mode="car">
			</leg>
			<act type="h" x="5.612984591758003" y="-2.925708928962113" />
		</plan>

	</person>

<!-- ====================================================================== -->

	<person id="20" employed="no">
		<plan selected="yes">
			<act type="h" x="-1.1851359456701498" y="-2.7555882825141715" end_time="00:00:02" />
			<leg mode="car">
			</leg>
			<act type="h" x="5.602822410887641" y="-2.6203446451201025" />
		</plan>

	</person>

<!-- ====================================================================== -->

	<person id="21" employed="no">
		<plan selected="yes">
			<act type="h" x="-1.8272349609357559" y="-0.3552705978207229" end_time="00:00:03" />
			<leg mode="car">
			</leg>
			<act type="h" x="6.58787739376139" y="-0.4763015029424722" />
		</plan>

	</person>

<!-- ====================================================================== -->

	<person id="22" employed="no">
		<plan selected="yes">
			<act type="h" x="-1.37308286589973" y="-2.2786108274230212" end_time="00:00:03" />
			<leg mode="car">
			</leg>
			<act type="h" x="5.412456409508109" y="-2.4372531881856934" />
		</plan>

	</person>

<!-- ====================================================================== -->

	<person id="23" employed="no">
		<plan selected="yes">
			<act type="h" x="-1.3280923961794093" y="-1.4757803553658977" end_time="00:00:03" />
			<leg mode="car">
			</leg>
			<act type="h" x="5.8207020003227665" y="-2.1369996644605913" />
		</plan>

	</person>

<!-- ====================================================================== -->

	<person id="24" employed="no">
		<plan selected="yes">
			<act type="h" x="-1.4327188360208039" y="-1.8491602905670967" end_time="00:00:03" />
			<leg mode="car">
			</leg>
			<act type="h" x="5.7374339834317425" y="-2.466259048111269" />
		</plan>

	</person>

<!-- ====================================================================== -->

	<person id="25" employed="no">
		<plan selected="yes">
			<act type="h" x="-1.366498561345989" y="-2.6980046760845164" end_time="00:00:03" />
			<leg mode="car">
			</leg>
			<act type="h" x="5.443164581545877" y="-3.298023325085188" />
		</plan>

	</person>

<!-- ====================================================================== -->

	<person id="26" employed="no">
		<plan selected="yes">
			<act type="h" x="-1.9805507974724903" y="-0.7204482127728314" end_time="00:00:03" />
			<leg mode="car">
			</leg>
			<act type="h" x="6.151044499141952" y="-1.334838822513315" />
		</plan>

	</person>

<!-- ====================================================================== -->

	<person id="27" employed="no">
		<plan selected="yes">
			<act type="h" x="-1.287934818101126" y="-1.9681336917258792" end_time="00:00:04" />
			<leg mode="car">
			</leg>
			<act type="h" x="5.775573171277971" y="-2.492981873710826" />
		</plan>

	</person>

<!-- ====================================================================== -->

	<person id="28" employed="no">
		<plan selected="yes">
			<act type="h" x="-1.441381128407833" y="-1.3296929913824025" end_time="00:00:04" />
			<leg mode="car">
			</leg>
			<act type="h" x="6.035824556265271" y="-1.93017895904308" />
		</plan>

	</person>

<!-- ====================================================================== -->

	<person id="29" employed="no">
		<plan selected="yes">
			<act type="h" x="-1.5556360615485365" y="-1.8169091789659113" end_time="00:00:04" />
			<leg mode="car">
			</leg>
			<act type="h" x="5.749463321880458" y="-2.520363777637136" />
		</plan>

	</person>

<!-- ====================================================================== -->

	<person id="3" employed="no">
		<plan selected="yes">
			<act type="h" x="-0.9545928519813088" y="-1.7882021477401249" end_time="00:00:00" />
			<leg mode="car">
			</leg>
			<act type="h" x="5.664153796985496" y="-2.2705933281815014" />
		</plan>

	</person>

<!-- ====================================================================== -->

	<person id="30" employed="no">
		<plan selected="yes">
			<act type="h" x="-2.020231476396948" y="-0.6785610751845795" end_time="00:00:04" />
			<leg mode="car">
			</leg>
			<act type="h" x="6.31071800176185" y="-1.3856365888687296" />
		</plan>

	</person>

<!-- ====================================================================== -->

	<person id="31" employed="no">
		<plan selected="yes">
			<act type="h" x="-2.131369402389591" y="-0.16589867882532028" end_time="00:00:05" />
			<leg mode="car">
			</leg>
			<act type="h" x="-0.34275573475918" y="0.7673713669383847" />
		</plan>

	</person>

<!-- ====================================================================== -->

	<person id="32" employed="no">
		<plan selected="yes">
			<act type="h" x="-1.6165030900696433" y="-1.9863050602273866" end_time="00:00:05" />
			<leg mode="car">
			</leg>
			<act type="h" x="5.887783464532962" y="-1.9580201341766743" />
		</plan>

	</person>

<!-- ====================================================================== -->

	<person id="33" employed="no">
		<plan selected="yes">
			<act type="h" x="-1.3385568438607223" y="-2.865708876337461" end_time="00:00:05" />
			<leg mode="car">
			</leg>
			<act type="h" x="5.382600020428841" y="-3.3084811946347363" />
		</plan>

	</person>

<!-- ====================================================================== -->

	<person id="34" employed="no">
		<plan selected="yes">
			<act type="h" x="-1.5719436225832029" y="-1.4827038335318479" end_time="00:00:05" />
			<leg mode="car">
			</leg>
			<act type="h" x="5.339013722289029" y="-2.1965730795197196" />
		</plan>

	</person>

<!-- ====================================================================== -->

	<person id="35" employed="no">
		<plan selected="yes">
			<act type="h" x="-1.6709639863675074" y="-0.9484095607266945" end_time="00:00:05" />
			<leg mode="car">
			</leg>
			<act type="h" x="6.1154810035953275" y="-1.414643289963457" />
		</plan>

	</person>

<!-- ====================================================================== -->

	<person id="36" employed="no">
		<plan selected="yes">
			<act type="h" x="-1.6890449725704562" y="-1.7659914267227679" end_time="00:00:05" />
			<leg mode="car">
			</leg>
			<act type="h" x="6.367106103407709" y="-0.751966853522413" />
		</plan>

	</person>

<!-- ====================================================================== -->

	<person id="37" employed="no">
		<plan selected="yes">
			<act type="h" x="-1.8386516290823878" y="-1.3975574761875034" end_time="00:00:05" />
			<leg mode="car">
			</leg>
			<act type="h" x="6.170882934391557" y="-1.027508499033707" />
		</plan>

	</person>

<!-- ====================================================================== -->

	<person id="38" employed="no">
		<plan selected="yes">
			<act type="h" x="-1.082078939031315" y="-2.826214474699387" end_time="00:00:06" />
			<leg mode="car">
			</leg>
			<act type="h" x="5.397264666816872" y="-3.1233362474595188" />
		</plan>

	</person>

<!-- ====================================================================== -->

	<person id="39" employed="no">
		<plan selected="yes">
			<act type="h" x="-1.5079662969237169" y="-0.9459798534158894" end_time="00:00:06" />
			<leg mode="car">
			</leg>
			<act type="h" x="5.86258407972959" y="-1.6392426568087395" />
		</plan>

	</person>

<!-- ====================================================================== -->

	<person id="4" employed="no">
		<plan selected="yes">
			<act type="h" x="-1.1520466861723204" y="-2.6522921045608823" end_time="00:00:00" />
			<leg mode="car">
			</leg>
			<act type="h" x="5.124273117526941" y="-3.121880866358517" />
		</plan>

	</person>

<!-- ====================================================================== -->

	<person id="40" employed="no">
		<plan selected="yes">
			<act type="h" x="-1.70733600178566" y="-1.9662411442963477" end_time="00:00:06" />
			<leg mode="car">
			</leg>
			<act type="h" x="5.713241613458498" y="-2.4911753941985046" />
		</plan>

	</person>

<!-- ====================================================================== -->

	<person id="41" employed="no">
		<plan selected="yes">
			<act type="h" x="1.5810204959977368" y="1.2586893551498068" end_time="00:00:06" />
			<leg mode="car">
			</leg>
			<act type="h" x="3.594138149729561" y="1.1999781153708613" />
		</plan>

	</person>

<!-- ====================================================================== -->

	<person id="42" employed="no">
		<plan selected="yes">
			<act type="h" x="-1.3947439619534672" y="-2.242936856134315" end_time="00:00:07" />
			<leg mode="car">
			</leg>
			<act type="h" x="5.592362999067582" y="-2.944697478908703" />
		</plan>

	</person>

<!-- ====================================================================== -->


<!-- ====================================================================== -->

	<person id="44" employed="no">
		<plan selected="yes">
			<act type="h" x="-1.1489838762222822" y="-2.793808598632015" end_time="00:00:07" />
			<leg mode="car">
			</leg>
			<act type="h" x="5.2825893894155" y="-3.0403139811937367" />
		</plan>

	</person>

<!-- ====================================================================== -->

	<person id="45" employed="no">
		<plan selected="yes">
			<act type="h" x="-1.2813239498660227" y="-2.483135107253724" end_time="00:00:07" />
			<leg mode="car">
			</leg>
			<act type="h" x="5.247553510087126" y="-2.668379782026263" />
		</plan>

	</person>

<!-- ====================================================================== -->

	<person id="46" employed="no">
		<plan selected="yes">
			<act type="h" x="-1.5217932979168958" y="-1.081316220753973" end_time="00:00:07" />
			<leg mode="car">
			</leg>
			<act type="h" x="5.977579847206202" y="-1.9039075321001253" />
		</plan>

	</person>

<!-- ====================================================================== -->

	<person id="47" employed="no">
		<plan selected="yes">
			<act type="h" x="-1.4697624431916494" y="-0.7117160552135479" end_time="00:00:08" />
			<leg mode="car">
			</leg>
			<act type="h" x="5.613584102834571" y="-1.5298606716382128" />
		</plan>

	</person>

<!-- ====================================================================== -->

	<person id="48" employed="no">
		<plan selected="yes">
			<act type="h" x="-1.6701246567770343" y="-1.9592945159384496" end_time="00:00:08" />
			<leg mode="car">
			</leg>
			<act type="h" x="5.528692156340783" y="-2.1214615627840208" />
		</plan>

	</person>

<!-- ====================================================================== -->

	<person id="49" employed="no">
		<plan selected="yes">
			<act type="h" x="-1.6588602026027162" y="-1.5527486264191708" end_time="00:00:08" />
			<leg mode="car">
			</leg>
			<act type="h" x="6.078301668529703" y="-1.6591715671821443" />
		</plan>

	</person>

<!-- ====================================================================== -->

	<person id="5" employed="no">
		<plan selected="yes">
			<act type="h" x="-1.6720989509461543" y="-1.4680009479562295" end_time="00:00:00" />
			<leg mode="car">
			</leg>
			<act type="h" x="6.042782171873579" y="-1.6551505855029218" />
		</plan>

	</person>

<!-- ====================================================================== -->

	<person id="50" employed="no">
		<plan selected="yes">
			<act type="h" x="-1.742004796028451" y="-0.9248241694715996" end_time="00:00:08" />
			<leg mode="car">
			</leg>
			<act type="h" x="5.3306583502370195" y="-1.1536129410739613" />
		</plan>

	</person>

<!-- ====================================================================== -->

	<person id="51" employed="no">
		<plan selected="yes">
			<act type="h" x="-1.7436418631240036" y="-0.22317691156599045" end_time="00:00:08" />
			<leg mode="car">
			</leg>
			<act type="h" x="-0.3871620780898133" y="0.8054411184602996" />
		</plan>

	</person>

<!-- ====================================================================== -->

	<person id="52" employed="no">
		<plan selected="yes">
			<act type="h" x="-1.4993729473880024" y="-1.8438563402308674" end_time="00:00:08" />
			<leg mode="car">
			</leg>
			<act type="h" x="5.113684457238278" y="-2.66089021871999" />
		</plan>

	</person>

<!-- ====================================================================== -->

	<person id="53" employed="no">
		<plan selected="yes">
			<act type="h" x="-1.816857357791138" y="-1.1443645199332109" end_time="00:00:08" />
			<leg mode="car">
			</leg>
			<act type="h" x="5.3611772144647745" y="-1.8525804078988233" />
		</plan>

	</person>

<!-- ====================================================================== -->

	<person id="54" employed="no">
		<plan selected="yes">
			<act type="h" x="-1.8383856515496595" y="-0.864642187512385" end_time="00:00:09" />
			<leg mode="car">
			</leg>
			<act type="h" x="4.775276429684491" y="-0.27065255988297043" />
		</plan>

	</person>

<!-- ====================================================================== -->

	<person id="55" employed="no">
		<plan selected="yes">
			<act type="h" x="-1.825255948744939" y="-0.7918563499565068" end_time="00:00:10" />
			<leg mode="car">
			</leg>
			<act type="h" x="4.103074737177524" y="-0.40493066006427547" />
		</plan>

	</person>

<!-- ====================================================================== -->

	<person id="56" employed="no">
		<plan selected="yes">
			<act type="h" x="0.973189468231519" y="1.0284089504623701" end_time="00:00:10" />
			<leg mode="car">
			</leg>
			<act type="h" x="3.4082501881752583" y="0.7022794302382321" />
		</plan>

	</person>

<!-- ====================================================================== -->


<!-- ====================================================================== -->

	<person id="58" employed="no">
		<plan selected="yes">
			<act type="h" x="2.5226809432116815" y="-3.8200662823645923" end_time="00:00:00" />
			<leg mode="car">
			</leg>
			<act type="h" x="2.5919635304078694" y="0.7671321309232595" />
		</plan>

	</person>

<!-- ====================================================================== -->

	<person id="59" employed="no">
		<plan selected="yes">
			<act type="h" x="2.1344618385307776" y="-4.231796125166941" end_time="00:00:00" />
			<leg mode="car">
			</leg>
			<act type="h" x="1.9945835506686609" y="1.9584063095082103" />
		</plan>

	</person>

<!-- ====================================================================== -->

	<person id="6" employed="no">
		<plan selected="yes">
			<act type="h" x="-1.6193159053164412" y="-0.7932277444577663" end_time="00:00:00" />
			<leg mode="car">
			</leg>
			<act type="h" x="6.318733856722339" y="-0.949746909528041" />
		</plan>

	</person>

<!-- ====================================================================== -->

	<person id="60" employed="no">
		<plan selected="yes">
			<act type="h" x="1.4160076422083723" y="-3.9412522582827254" end_time="00:00:00" />
			<leg mode="car">
			</leg>
			<act type="h" x="1.4851699933090663" y="2.324467338565258" />
		</plan>

	</person>

<!-- ====================================================================== -->

	<person id="61" employed="no">
		<plan selected="yes">
			<act type="h" x="1.7519725319510342" y="-4.746288715934295" end_time="00:00:00" />
			<leg mode="car">
			</leg>
			<act type="h" x="1.7867337401956809" y="2.149240799001747" />
		</plan>

	</person>

<!-- ====================================================================== -->

	<person id="62" employed="no">
		<plan selected="yes">
			<act type="h" x="1.5731474364490996" y="-4.741891287635018" end_time="00:00:01" />
			<leg mode="car">
			</leg>
			<act type="h" x="1.4012590927108697" y="1.6365377194967783" />
		</plan>

	</person>

<!-- ====================================================================== -->

	<person id="63" employed="no">
		<plan selected="yes">
			<act type="h" x="2.549539687028284" y="-4.6697111624624315" end_time="00:00:01" />
			<leg mode="car">
			</leg>
			<act type="h" x="2.6035778832164422" y="1.4655749765123247" />
		</plan>

	</person>

<!-- ====================================================================== -->

	<person id="64" employed="no">
		<plan selected="yes">
			<act type="h" x="1.9976284475928918" y="-4.7681708271043695" end_time="00:00:01" />
			<leg mode="car">
			</leg>
			<act type="h" x="2.046875526351447" y="-3.8420227308174906" />
		</plan>

	</person>

<!-- ====================================================================== -->

	<person id="65" employed="no">
		<plan selected="yes">
			<act type="h" x="2.4925955356707896" y="-4.245164462996565" end_time="00:00:02" />
			<leg mode="car">
			</leg>
			<act type="h" x="2.422199803375099" y="1.7030266720025602" />
		</plan>

	</person>

<!-- ====================================================================== -->

	<person id="66" employed="no">
		<plan selected="yes">
			<act type="h" x="1.5212449006364164" y="-4.704424839136296" end_time="00:00:02" />
			<leg mode="car">
			</leg>
			<act type="h" x="1.9307144286164715" y="1.3257231464293924" />
		</plan>

	</person>

<!-- ====================================================================== -->

	<person id="67" employed="no">
		<plan selected="yes">
			<act type="h" x="1.9195293113942336" y="-4.463580755485878" end_time="00:00:02" />
			<leg mode="car">
			</leg>
			<act type="h" x="1.8336413014554431" y="1.5731841377900166" />
		</plan>

	</person>

<!-- ====================================================================== -->

	<person id="68" employed="no">
		<plan selected="yes">
			<act type="h" x="1.9332165887815278" y="-3.4569162166950305" end_time="00:00:03" />
			<leg mode="car">
			</leg>
			<act type="h" x="1.8500232562716588" y="1.7627474464102506" />
		</plan>

	</person>

<!-- ====================================================================== -->

	<person id="69" employed="no">
		<plan selected="yes">
			<act type="h" x="2.2398298810076587" y="-4.380757237876244" end_time="00:00:03" />
			<leg mode="car">
			</leg>
			<act type="h" x="2.1397184946212477" y="1.604043203024888" />
		</plan>

	</person>

<!-- ====================================================================== -->

	<person id="7" employed="no">
		<plan selected="yes">
			<act type="h" x="-1.0117874412790424" y="-2.4875290623494077" end_time="00:00:01" />
			<leg mode="car">
			</leg>
			<act type="h" x="5.471403083659188" y="-3.301192037388666" />
		</plan>

	</person>

<!-- ====================================================================== -->

	<person id="70" employed="no">
		<plan selected="yes">
			<act type="h" x="2.7148484056572926" y="-4.081127126515666" end_time="00:00:04" />
			<leg mode="car">
			</leg>
			<act type="h" x="2.7571614171604892" y="1.739606021856568" />
		</plan>

	</person>

<!-- ====================================================================== -->

	<person id="71" employed="no">
		<plan selected="yes">
			<act type="h" x="1.5549379407032802" y="-4.6055825345487555" end_time="00:00:04" />
			<leg mode="car">
			</leg>
			<act type="h" x="3.0351323160522323" y="2.2874630144027392" />
		</plan>

	</person>

<!-- ====================================================================== -->

	<person id="72" employed="no">
		<plan selected="yes">
			<act type="h" x="2.5996592711439854" y="-4.349299019256373" end_time="00:00:04" />
			<leg mode="car">
			</leg>
			<act type="h" x="1.563787629546317" y="2.212190274522283" />
		</plan>

	</person>

<!-- ====================================================================== -->

	<person id="73" employed="no">
		<plan selected="yes">
			<act type="h" x="2.025512846984875" y="-4.716693498232044" end_time="00:00:04" />
			<leg mode="car">
			</leg>
			<act type="h" x="2.6311466879857583" y="1.53248068306651" />
		</plan>

	</person>

<!-- ====================================================================== -->

	<person id="74" employed="no">
		<plan selected="yes">
			<act type="h" x="2.4140088210502393" y="-4.383528302367299" end_time="00:00:05" />
			<leg mode="car">
			</leg>
			<act type="h" x="2.3870984522894134" y="1.8347504648217876" />
		</plan>

	</person>

<!-- ====================================================================== -->

	<person id="75" employed="no">
		<plan selected="yes">
			<act type="h" x="1.4460484886686538" y="-4.466815277638149" end_time="00:00:05" />
			<leg mode="car">
			</leg>
			<act type="h" x="1.40568892291228" y="2.9436326087153764" />
		</plan>

	</person>

<!-- ====================================================================== -->

	<person id="76" employed="no">
		<plan selected="yes">
			<act type="h" x="1.9885726187142796" y="-4.676761000056972" end_time="00:00:05" />
			<leg mode="car">
			</leg>
			<act type="h" x="2.4675984628573455" y="1.8510301061683858" />
		</plan>

	</person>

<!-- ====================================================================== -->

	<person id="77" employed="no">
		<plan selected="yes">
			<act type="h" x="2.550450913356165" y="-4.4987456913926325" end_time="00:00:05" />
			<leg mode="car">
			</leg>
			<act type="h" x="2.832247046668349" y="2.897052838466431" />
		</plan>

	</person>

<!-- ====================================================================== -->

	<person id="78" employed="no">
		<plan selected="yes">
			<act type="h" x="1.5272464623219018" y="-4.5352367320427085" end_time="00:00:06" />
			<leg mode="car">
			</leg>
			<act type="h" x="1.321704526229717" y="1.625602143088457" />
		</plan>

	</person>

<!-- ====================================================================== -->

	<person id="79" employed="no">
		<plan selected="yes">
			<act type="h" x="2.2414713360158034" y="-4.7107872734776715" end_time="00:00:06" />
			<leg mode="car">
			</leg>
			<act type="h" x="1.8936756669416126" y="0.6888401327801493" />
		</plan>

	</person>

<!-- ====================================================================== -->

	<person id="8" employed="no">
		<plan selected="yes">
			<act type="h" x="-1.1566055754875146" y="-1.9287402064817174" end_time="00:00:01" />
			<leg mode="car">
			</leg>
			<act type="h" x="5.166877578188977" y="-2.7087184436822804" />
		</plan>

	</person>

<!-- ====================================================================== -->

	<person id="80" employed="no">
		<plan selected="yes">
			<act type="h" x="2.762967546377314" y="-4.23364218415881" end_time="00:00:07" />
			<leg mode="car">
			</leg>
			<act type="h" x="3.2896234117810184" y="2.453179708400828" />
		</plan>

	</person>

<!-- ====================================================================== -->

	<person id="81" employed="no">
		<plan selected="yes">
			<act type="h" x="1.6873751808445299" y="-4.542584329785941" end_time="00:00:07" />
			<leg mode="car">
			</leg>
			<act type="h" x="-0.38714344867489875" y="0.9881837306258867" />
		</plan>

	</person>

<!-- ====================================================================== -->

	<person id="82" employed="no">
		<plan selected="yes">
			<act type="h" x="2.2008863449039877" y="-4.786230028212776" end_time="00:00:07" />
			<leg mode="car">
			</leg>
			<act type="h" x="2.5353578023850725" y="1.6829930523645797" />
		</plan>

	</person>

<!-- ====================================================================== -->

	<person id="83" employed="no">
		<plan selected="yes">
			<act type="h" x="1.5300449278416732" y="-4.713880265298318" end_time="00:00:07" />
			<leg mode="car">
			</leg>
			<act type="h" x="-0.35370358408714236" y="0.8484984451869109" />
		</plan>

	</person>

<!-- ====================================================================== -->

	<person id="84" employed="no">
		<plan selected="yes">
			<act type="h" x="2.556235020824768" y="-4.672257738180281" end_time="00:00:08" />
			<leg mode="car">
			</leg>
			<act type="h" x="2.7130551108129026" y="2.2052002128292107" />
		</plan>

	</person>

<!-- ====================================================================== -->

	<person id="85" employed="no">
		<plan selected="yes">
			<act type="h" x="1.6845551140472708" y="-4.785058175971536" end_time="00:00:09" />
			<leg mode="car">
			</leg>
			<act type="h" x="1.576862004360755" y="1.089815022481684" />
		</plan>

	</person>

<!-- ====================================================================== -->

	<person id="86" employed="no">
		<plan selected="yes">
			<act type="h" x="2.0012177553797525" y="-4.41192573755094" end_time="00:00:09" />
			<leg mode="car">
			</leg>
			<act type="h" x="1.8888934086444487" y="1.3891354033578154" />
		</plan>

	</person>

<!-- ====================================================================== -->

	<person id="87" employed="no">
		<plan selected="yes">
			<act type="h" x="2.1850162537447027" y="-4.667592044591865" end_time="00:00:09" />
			<leg mode="car">
			</leg>