<?xml version="1.0" encoding="UTF-8"?>
<!DOCTYPE network SYSTEM "http://www.matsim.org/files/dtd/network_v1.dtd">
<network>

<!-- ====================================================================== -->

	<nodes>
		<node id="0" x="-4.416403459376909" y="-2.517349996334758" />
		<node id="1" x="-3.0208198625534513" y="-2.517349996334758" />
		<node id="2" x="2.1198741459987778" y="-2.517349996334758" />
		<node id="3" x="5.6971612138057415" y="-2.517349996334758" />
		<node id="4" x="6.828864684331093" y="-2.5151417944410506" />
		<node id="5" x="2.109937237477092" y="-4.7785487354917535" />
		<node id="6" x="2.109937237477092" y="-4.28391151130116" />
		<node id="7" x="2.109937237477092" y="-0.21198721930360342" />
		<node id="8" x="2.0856470166463037" y="2.7757099428833265" />
	</nodes>

<!-- ====================================================================== -->

	<links capperiod="01:00:00" effectivecellsize="7.5" effectivelanewidth="NaN">
		<link id="0" from="0" to="1" length="1.3955835968234576" freespeed="1.34" capacity="1.0" permlanes="1.0" oneway="1" modes="car" />
		<link id="1" from="1" to="2" length="5.138486281132478" freespeed="1.34" capacity="1.0" permlanes="1.0" oneway="1" modes="car" />
		<link id="2" from="2" to="3" length="3.5794959508239548" freespeed="1.34" capacity="1.0" permlanes="1.0" oneway="1" modes="car" />
		<link id="3" from="3" to="4" length="1.1305993695784977" freespeed="1.34" capacity="1.0" permlanes="1.0" oneway="1" modes="car" />
		<link id="4" from="5" to="6" length="0.4946372241905932" freespeed="1.34" capacity="1.0" permlanes="1.0" oneway="1" modes="car" />
		<link id="5" from="6" to="2" length="1.7665615149664022" freespeed="1.34" capacity="1.0" permlanes="1.0" oneway="1" modes="car" />
		<link id="6" from="2" to="7" length="2.3053627770311547" freespeed="1.34" capacity="1.0" permlanes="1.0" oneway="1" modes="car" />
		<link id="7" from="7" to="8" length="2.9855412249693214" freespeed="1.34" capacity="1.0" permlanes="1.0" oneway="1" modes="car" />
	</links>

<!-- ====================================================================== -->

</network>
