<?xml version="1.0" encoding="UTF-8"?>
<networkChangeEvents xmlns="http://www.matsim.org/files/dtd" xmlns:xsi="http://www.w3.org/2001/XMLSchema-instance" xsi:schemaLocation="http://www.matsim.org/files/dtd http://www.matsim.org/files/dtd/networkChangeEvents.xsd">

  <networkChangeEvent startTime="16:20:00">
    <link refId="8425"/>
    <flowCapacity type="scaleFactor" value="0.5"/>
  </networkChangeEvent>

  <networkChangeEvent startTime="17:50:00">
    <link refId="8425"/>
    <flowCapacity type="scaleFactor" value="2"/>
  </networkChangeEvent>


</networkChangeEvents>
