<?xml version="1.0" ?>
<!DOCTYPE plans SYSTEM "http://www.matsim.org/files/dtd/plans_v4.dtd">
<plans>
<person id="1">
	<plan>
		<act type="h" x="0" y="0" link="1" end_time="06:00" />
		<leg mode="car">
			<route>2 3</route>
		</leg>
		<act type="h" x="4000" y="0" link="3" />
	</plan>
</person>
<person id="1000000">
	<plan>
		<act type="h" x="0" y="0" link="1" end_time="06:05" />
		<leg mode="car">
			<route>2 3</route>
		</leg>
		<act type="h" x="4000" y="0" link="3" />
	</plan>
</person>
<person id="2000000">
	<plan>
		<act type="h" x="0" y="0" link="1" end_time="06:10" />
		<leg mode="car">
			<route>2 3</route>
		</leg>
		<act type="h" x="4000" y="0" link="3" />
	</plan>
</person>
</plans>