<?xml version="1.0" encoding="utf-8"?>
<!DOCTYPE population SYSTEM "http://www.matsim.org/files/dtd/population_v6.dtd">

<population>



<!-- ====================================================================== -->

	<person id="1363_1">
		<plan selected="yes">
			<activity type="home" x="27.0" y="27.0" end_time="06:20:00" >
			</activity>
			<leg mode="car">
			</leg>
			<activity type="work" x="14.0" y="14.0" end_time="17:10:00" >
			</activity>
			<leg mode="car">
			</leg>
			<activity type="other" x="182.0" y="182.0" end_time="18:10:00" >
			</activity>
			<leg mode="car">
			</leg>
			<activity type="home" x="-6.0" y="-6.0" >
			</activity>
		</plan>

	</person>

<!-- ====================================================================== -->

	<person id="1363_2">
		<plan selected="yes">
			<activity type="home" x="27.0" y="27.0" end_time="10:40:00" >
			</activity>
			<leg mode="car">
			</leg>
			<activity type="work" x="120.0" y="120.0" end_time="18:10:00" >
			</activity>
			<leg mode="car">
			</leg>
			<activity type="home" x="120.0" y="120.0" >
			</activity>
		</plan>

	</person>

<!-- ====================================================================== -->

	<person id="1393_1">
		<plan selected="yes">
			<activity type="home" x="-6.0" y="-6.0" end_time="07:20:00" >
			</activity>
			<leg mode="car">
			</leg>
			<activity type="other" x="171.0" y="171.0" end_time="16:00:00" >
			</activity>
			<leg mode="car">
			</leg>
			<activity type="home" x="149.0" y="149.0" >
			</activity>
		</plan>

	</person>

<!-- ====================================================================== -->

	<person id="1393_4">
		<plan selected="yes">
			<activity type="home" x="43.0" y="43.0" end_time="07:40:00" >
			</activity>
			<leg mode="car">
			</leg>
			<activity type="other" x="149.0" y="149.0" end_time="08:00:00" >
			</activity>
			<leg mode="car">
			</leg>
			<activity type="home" x="151.0" y="151.0" >
			</activity>
		</plan>

	</person>

<!-- ====================================================================== -->

	<person id="1393_7">
		<plan selected="yes">
			<activity type="home" x="168.0" y="168.0" end_time="07:40:00" >
			</activity>
			<leg mode="car">
			</leg>
			<activity type="other" x="149.0" y="149.0" end_time="13:00:00" >
			</activity>
			<leg mode="car">
			</leg>
			<activity type="home" x="115.0" y="115.0" >
			</activity>
		</plan>

	</person>

<!-- ====================================================================== -->

	<person id="1393_8">
		<plan selected="yes">
			<activity type="home" x="7.0" y="7.0" end_time="07:40:00" >
			</activity>
			<leg mode="car">
			</leg>
			<activity type="other" x="66.0" y="66.0" end_time="15:00:00" >
			</activity>
			<leg mode="car">
			</leg>
			<activity type="home" x="80.0" y="80.0" >
			</activity>
		</plan>

	</person>

<!-- ====================================================================== -->

	<person id="1393_9">
		<plan selected="yes">
			<activity type="home" x="27.0" y="27.0" end_time="09:30:00" >
			</activity>
			<leg mode="car">
			</leg>
			<activity type="work" x="160.0" y="160.0" end_time="12:00:00" >
			</activity>
			<leg mode="car">
			</leg>
			<activity type="home" x="114.0" y="114.0" end_time="14:30:00" >
			</activity>
			<leg mode="car">
			</leg>
			<activity type="other" x="80.0" y="80.0" end_time="15:00:00" >
			</activity>
			<leg mode="car">
			</leg>
			<activity type="home" x="-6.0" y="-6.0" >
			</activity>
		</plan>

	</person>

<!-- ====================================================================== -->

	<person id="1405_1">
		<plan selected="yes">
			<activity type="home" x="27.0" y="27.0" end_time="08:00:00" >
			</activity>
			<leg mode="car">
			</leg>
			<activity type="shop" x="41.0" y="41.0" end_time="15:30:00" >
			</activity>
			<leg mode="car">
			</leg>
			<activity type="other" x="-6.0" y="-6.0" end_time="16:30:00" >
			</activity>
			<leg mode="car">
			</leg>
			<activity type="home" x="50.0" y="50.0" end_time="18:00:00" >
			</activity>
			<leg mode="car">
			</leg>
			<activity type="leis" x="179.0" y="179.0" end_time="18:45:00" >
			</activity>
			<leg mode="car">
			</leg>
			<activity type="home" x="179.0" y="179.0" >
			</activity>
		</plan>

	</person>

<!-- ====================================================================== -->

	<person id="1470_1">
		<plan selected="yes">
			<activity type="home" x="21.0" y="21.0" end_time="10:20:00" >
			</activity>
			<leg mode="car">
			</leg>
			<activity type="other" x="115.0" y="115.0" end_time="13:10:00" >
			</activity>
			<leg mode="car">
			</leg>
			<activity type="home" x="50.0" y="50.0" end_time="18:30:00" >
			</activity>
			<leg mode="car">
			</leg>
			<activity type="leis" x="43.0" y="43.0" end_time="21:00:00" >
			</activity>
			<leg mode="car">
			</leg>
			<activity type="leis" x="41.0" y="41.0" >
			</activity>
		</plan>

	</person>

<!-- ====================================================================== -->

	<person id="1470_2">
		<plan selected="yes">
			<activity type="home" x="50.0" y="50.0" end_time="13:30:00" >
			</activity>
			<leg mode="car">
			</leg>
			<activity type="leis" x="179.0" y="179.0" end_time="14:16:00" >
			</activity>
			<leg mode="car">
			</leg>
			<activity type="home" x="50.0" y="50.0" end_time="21:00:00" >
			</activity>
			<leg mode="car">
			</leg>
			<activity type="leis" x="-6.0" y="-6.0" end_time="21:16:00" >
			</activity>
			<leg mode="car">
			</leg>
			<activity type="home" x="165.0" y="165.0" >
			</activity>
		</plan>

	</person>

<!-- ====================================================================== -->

	<person id="1470_3">
		<plan selected="yes">
			<activity type="home" x="168.0" y="168.0" end_time="10:40:00" >
			</activity>
			<leg mode="car">
			</leg>
			<activity type="other" x="106.0" y="106.0" end_time="15:00:00" >
			</activity>
			<leg mode="car">
			</leg>
			<activity type="leis" x="98.0" y="98.0" end_time="17:00:00" >
			</activity>
			<leg mode="car">
			</leg>
			<activity type="leis" x="106.0" y="106.0" >
			</activity>
		</plan>

	</person>

<!-- ====================================================================== -->

</population>
