<?xml version="1.0" encoding="utf-8"?>
<!DOCTYPE network SYSTEM "http://www.matsim.org/files/dtd/network_v1.dtd">

<network name="triangle test network">

<!-- ====================================================================== -->

	<nodes>
		<node id="1" x="0.0" y="0.0" />
		<node id="10" x="120.0" y="210.0" />
		<node id="11" x="80.0" y="140.0" />
		<node id="12" x="40.0" y="70.0" />
		<node id="2" x="80.0" y="0.0" />
		<node id="3" x="160.0" y="0.0" />
		<node id="4" x="240.0" y="0.0" />
		<node id="5" x="320.0" y="0.0" />
		<node id="6" x="280.0" y="70.0" />
		<node id="7" x="240.0" y="140.0" />
		<node id="8" x="200.0" y="210.0" />
		<node id="9" x="160.0" y="280.0" />
	</nodes>

<!-- ====================================================================== -->

	<links capperiod="01:00:00" effectivecellsize="7.5" effectivelanewidth="3.75">
		<link id="100" from="1" to="2" length="90.0" freespeed="7.5" capacity="1800.0" permlanes="1.0" oneway="1" origid="100" type="1" />
		<link id="101" from="2" to="3" length="90.0" freespeed="7.5" capacity="1800.0" permlanes="1.0" oneway="1" origid="101" type="1" />
		<link id="102" from="3" to="4" length="90.0" freespeed="7.5" capacity="1800.0" permlanes="1.0" oneway="1" origid="102" type="1" />
		<link id="103" from="4" to="5" length="90.0" freespeed="7.5" capacity="1800.0" permlanes="1.0" oneway="1" origid="103" type="1" />
		<link id="104" from="5" to="6" length="90.0" freespeed="7.5" capacity="1800.0" permlanes="1.0" oneway="1" origid="104" type="1" />
		<link id="105" from="6" to="7" length="90.0" freespeed="7.5" capacity="1800.0" permlanes="1.0" oneway="1" origid="105" type="1" />
		<link id="106" from="7" to="8" length="90.0" freespeed="7.5" capacity="1800.0" permlanes="1.0" oneway="1" origid="106" type="1" />
		<link id="107" from="8" to="9" length="90.0" freespeed="7.5" capacity="1800.0" permlanes="1.0" oneway="1" origid="107" type="1" />
		<link id="108" from="9" to="10" length="90.0" freespeed="7.5" capacity="1800.0" permlanes="1.0" oneway="1" origid="108" type="1" />
		<link id="109" from="10" to="11" length="90.0" freespeed="7.5" capacity="1800.0" permlanes="1.0" oneway="1" origid="109" type="1" />
		<link id="110" from="11" to="12" length="90.0" freespeed="7.5" capacity="1800.0" permlanes="1.0" oneway="1" origid="110" type="1" />
		<link id="111" from="12" to="1" length="90.0" freespeed="7.5" capacity="1800.0" permlanes="1.0" oneway="1" origid="111" type="1" />
		<link id="112" from="2" to="9" length="300.0" freespeed="7.5" capacity="1800.0" permlanes="1.0" oneway="1" origid="112" type="2" />
		<link id="113" from="3" to="9" length="300.0" freespeed="7.5" capacity="1800.0" permlanes="1.0" oneway="1" origid="113" type="2" />
		<link id="114" from="4" to="9" length="300.0" freespeed="7.5" capacity="1800.0" permlanes="1.0" oneway="1" origid="114" type="2" />
		<link id="115" from="6" to="1" length="300.0" freespeed="7.5" capacity="1800.0" permlanes="1.0" oneway="1" origid="115" type="2" />
		<link id="116" from="7" to="1" length="300.0" freespeed="7.5" capacity="1800.0" permlanes="1.0" oneway="1" origid="116" type="2" />
		<link id="117" from="8" to="1" length="300.0" freespeed="7.5" capacity="1800.0" permlanes="1.0" oneway="1" origid="117" type="2" />
		<link id="118" from="10" to="5" length="300.0" freespeed="7.5" capacity="1800.0" permlanes="1.0" oneway="1" origid="118" type="2" />
		<link id="119" from="11" to="5" length="300.0" freespeed="7.5" capacity="1800.0" permlanes="1.0" oneway="1" origid="119" type="2" />
		<link id="120" from="12" to="5" length="300.0" freespeed="7.5" capacity="1800.0" permlanes="1.0" oneway="1" origid="120" type="2" />
	</links>

<!-- ====================================================================== -->

</network>
