<?xml version="1.0" encoding="UTF-8"?>

<vehicleDefinitions xmlns:xsi="http://www.w3.org/2001/XMLSchema-instance" xmlns="http://www.matsim.org/files/dtd" xsi:schemaLocation="http://www.matsim.org/files/dtd http://www.matsim.org/files/dtd/vehicleDefinitions_v2.0.xsd">

	<vehicleType id="train_type">
		<attributes>
			<attribute name="railsimAcceleration" class="java.lang.Double">0.5</attribute>
			<attribute name="railsimDeceleration" class="java.lang.Double">0.5</attribute>
			<attribute name="railsimReversible" class="java.lang.Double">60.0</attribute>
		</attributes>
		<capacity seats="200" standingRoomInPersons="300"/>
		<length meter="150.0"/>
		<width meter="3.0"/>
		<maximumVelocity meterPerSecond="20"/>
		<costInformation>
		</costInformation>
		<passengerCarEquivalents pce="1.0"/>
		<networkMode networkMode="rail"/>
		<flowEfficiencyFactor factor="1.0"/>
	</vehicleType>

	<vehicle id="train_1" type="train_type"/>
	<vehicle id="train_2" type="train_type"/>
	<vehicle id="train_3" type="train_type"/>
	<vehicle id="train_4" type="train_type"/>

</vehicleDefinitions>
