<?xml version="1.0" encoding="utf-8"?>
<!DOCTYPE population SYSTEM "http://www.matsim.org/files/dtd/population_v6.dtd">

<population>



<!-- ====================================================================== -->

	<person id="H01947R08P01">
		<plan selected="yes">
			<activity type="Home" x="343995.93819144927" y="3893518.806940749" end_time="08:26:00" >
			</activity>
			<leg mode="car">
			</leg>
			<activity type="Work" x="341831.2871027084" y="3900546.5366951725" end_time="17:32:00" >
			</activity>
			<leg mode="car">
			</leg>
			<activity type="Other" x="368596.3006093596" y="3897875.46712297" end_time="18:35:00" >
			</activity>
			<leg mode="car">
			</leg>
			<activity type="Other" x="367631.0881263332" y="3909715.8762987913" end_time="20:15:00" >
			</activity>
			<leg mode="car">
			</leg>
			<activity type="Other" x="370114.70758650353" y="3912683.554055464" end_time="20:38:00" >
			</activity>
			<leg mode="car">
			</leg>
			<activity type="Other" x="356027.77681542304" y="3944512.34563761" end_time="21:24:00" >
			</activity>
			<leg mode="car">
			</leg>
			<activity type="Home" x="343995.93819144927" y="3893518.806940749" end_time="28:00:00" >
			</activity>
		</plan>

	</person>

<!-- ====================================================================== -->

	<person id="H04112R11P02">
		<plan selected="yes">
			<activity type="Home" x="328638.41119268886" y="3937263.35992177" end_time="07:56:00" >
			</activity>
			<leg mode="pt">
			</leg>
			<activity type="Other" x="333876.4448786618" y="3937233.4153861566" end_time="08:44:00" >
			</activity>
			<leg mode="pt">
			</leg>
			<activity type="Other" x="317968.00478144665" y="3940273.055610766" end_time="09:17:00" >
			</activity>
			<leg mode="pt">
			</leg>
			<activity type="Other" x="317968.00478144665" y="3940273.055610766" end_time="09:50:00" >
			</activity>
			<leg mode="pt">
			</leg>
			<activity type="Other" x="316625.59958999266" y="3937702.7216489236" end_time="10:03:00" >
			</activity>
			<leg mode="pt">
			</leg>
			<activity type="Other" x="317150.8992326232" y="3938278.781627489" end_time="10:29:00" >
			</activity>
			<leg mode="pt">
			</leg>
			<activity type="Other" x="321130.58387515525" y="3933571.3382380703" end_time="10:52:00" >
			</activity>
			<leg mode="pt">
			</leg>
			<activity type="Other" x="322583.15845018555" y="3932962.889862551" end_time="10:58:00" >
			</activity>
			<leg mode="pt">
			</leg>
			<activity type="Other" x="319205.93853100773" y="3933237.202250093" end_time="11:51:00" >
			</activity>
			<leg mode="pt">
			</leg>
			<activity type="Work" x="327301.25384765165" y="3935942.170399644" end_time="14:47:00" >
			</activity>
			<leg mode="pt">
			</leg>
			<activity type="Other" x="319963.1158685427" y="3927892.3646538034" end_time="15:26:00" >
			</activity>
			<leg mode="pt">
			</leg>
			<activity type="Home" x="328638.41119268886" y="3937263.35992177" end_time="18:14:00" >
			</activity>
			<leg mode="pt">
			</leg>
			<activity type="Other" x="359824.07595863566" y="3936957.568788464" end_time="19:11:00" >
			</activity>
			<leg mode="pt">
			</leg>
			<activity type="Home" x="328638.41119268886" y="3937263.35992177" end_time="28:00:00" >
			</activity>
		</plan>

	</person>

<!-- ====================================================================== -->

	<person id="H06404R08P01">
		<plan selected="yes">
			<activity type="Home" x="367930.39451335266" y="3906912.8671092307" end_time="08:38:00" >
			</activity>
			<leg mode="taxi">
			</leg>
			<activity type="Other" x="368582.8509665737" y="3907870.250423474" end_time="08:54:00" >
			</activity>
			<leg mode="taxi">
			</leg>
			<activity type="Other" x="368301.4181722809" y="3907934.3762660427" end_time="08:56:00" >
			</activity>
			<leg mode="taxi">
			</leg>
			<activity type="Other" x="368379.1213139473" y="3907924.698777237" end_time="12:17:00" >
			</activity>
			<leg mode="taxi">
			</leg>
			<activity type="Other" x="368346.441784848" y="3907928.726167308" end_time="13:44:00" >
			</activity>
			<leg mode="taxi">
			</leg>
			<activity type="Other" x="369947.1357699534" y="3906099.216588857" end_time="15:50:00" >
			</activity>
			<leg mode="taxi">
			</leg>
			<activity type="Home" x="367930.39451335266" y="3906912.8671092307" end_time="18:53:00" >
			</activity>
			<leg mode="taxi">
			</leg>
			<activity type="Other" x="356652.7115081493" y="3938273.7623548214" end_time="20:00:00" >
			</activity>
			<leg mode="taxi">
			</leg>
			<activity type="Other" x="357468.88415327354" y="3939405.565910611" end_time="20:26:00" >
			</activity>
			<leg mode="taxi">
			</leg>
			<activity type="Home" x="367930.39451335266" y="3906912.8671092307" end_time="28:00:00" >
			</activity>
		</plan>

	</person>

<!-- ====================================================================== -->

	<person id="H09310R01P02">
		<plan selected="yes">
			<activity type="Home" x="374765.90652165434" y="3941905.4111639285" end_time="06:58:00" >
			</activity>
			<leg mode="car">
			</leg>
			<activity type="Work" x="359247.6597487861" y="3940756.174613179" end_time="16:07:00" >
			</activity>
			<leg mode="car">
			</leg>
			<activity type="Other" x="363878.8499971618" y="3955971.94444951" end_time="16:36:00" >
			</activity>
			<leg mode="car">
			</leg>
			<activity type="Other" x="361753.80013923533" y="3939182.672296285" end_time="17:00:00" >
			</activity>
			<leg mode="car">
			</leg>
			<activity type="Other" x="362339.5778505893" y="3942412.8015805087" end_time="17:10:00" >
			</activity>
			<leg mode="car">
			</leg>
			<activity type="Other" x="345992.8755678654" y="3937441.6179272393" end_time="18:01:00" >
			</activity>
			<leg mode="car">
			</leg>
			<activity type="Other" x="349384.8738382575" y="3934161.419650803" end_time="20:08:00" >
			</activity>
			<leg mode="car">
			</leg>
			<activity type="Other" x="359046.24570216687" y="3940018.112494864" end_time="20:34:00" >
			</activity>
			<leg mode="car">
			</leg>
			<activity type="Other" x="359824.07595863566" y="3936957.568788464" end_time="21:36:00" >
			</activity>
			<leg mode="car">
			</leg>
			<activity type="Other" x="358514.9749951645" y="3938844.040164589" end_time="21:48:00" >
			</activity>
			<leg mode="car">
			</leg>
			<activity type="Other" x="355727.66010664974" y="3935757.4716776563" end_time="22:03:00" >
			</activity>
			<leg mode="car">
			</leg>
			<activity type="Home" x="374765.90652165434" y="3941905.4111639285" end_time="28:00:00" >
			</activity>
		</plan>

	</person>

<!-- ====================================================================== -->

	<person id="H11961R10P02">
		<plan selected="yes">
			<activity type="Home" x="365827.1136989923" y="3911844.5676173056" end_time="09:42:00" >
			</activity>
			<leg mode="car">
			</leg>
			<activity type="Other" x="365721.8186444527" y="3913835.6993578738" end_time="11:29:00" >
			</activity>
			<leg mode="car">
			</leg>
			<activity type="Home" x="365827.1136989923" y="3911844.5676173056" end_time="11:32:00" >
			</activity>
			<leg mode="car">
			</leg>
			<activity type="Work" x="367334.5164465578" y="3910365.013447827" end_time="19:47:00" >
			</activity>
			<leg mode="car">
			</leg>
			<activity type="Home" x="365827.1136989923" y="3911844.5676173056" end_time="28:00:00" >
			</activity>
		</plan>

	</person>

<!-- ====================================================================== -->

	<person id="H13551R02P01">
		<plan selected="yes">
			<activity type="Home" x="368033.76175105583" y="3916229.269968474" end_time="11:12:00" >
			</activity>
			<leg mode="taxi">
			</leg>
			<activity type="Other" x="369591.8500933956" y="3912366.403689191" end_time="11:46:00" >
			</activity>
			<leg mode="taxi">
			</leg>
			<activity type="Other" x="364753.37704597204" y="3915605.622377034" end_time="13:42:00" >
			</activity>
			<leg mode="taxi">
			</leg>
			<activity type="Other" x="360870.8893755446" y="3923711.283402795" end_time="15:59:00" >
			</activity>
			<leg mode="taxi">
			</leg>
			<activity type="Other" x="364619.3097829954" y="3909628.629969368" end_time="16:55:00" >
			</activity>
			<leg mode="taxi">
			</leg>
			<activity type="Home" x="368033.76175105583" y="3916229.269968474" end_time="28:00:00" >
			</activity>
		</plan>

	</person>

<!-- ====================================================================== -->

	<person id="H13767R05P01">
		<plan selected="yes">
			<activity type="Home" x="358619.3952420808" y="3940812.962419167" end_time="12:38:00" >
			</activity>
			<leg mode="pt">
			</leg>
			<activity type="Other" x="353659.6752166296" y="3938590.306117055" end_time="13:13:00" >
			</activity>
			<leg mode="pt">
			</leg>
			<activity type="Home" x="358619.3952420808" y="3940812.962419167" end_time="28:00:00" >
			</activity>
		</plan>

	</person>

<!-- ====================================================================== -->

	<person id="H14758R03P01">
		<plan selected="yes">
			<activity type="Home" x="360754.8621272049" y="3935318.0059290323" end_time="11:53:00" >
			</activity>
			<leg mode="car">
			</leg>
			<activity type="Other" x="361243.0142002803" y="3930726.3137437855" end_time="14:36:00" >
			</activity>
			<leg mode="car">
			</leg>
			<activity type="Home" x="360754.8621272049" y="3935318.0059290323" end_time="16:31:00" >
			</activity>
			<leg mode="car">
			</leg>
			<activity type="Other" x="355507.06899348705" y="3943430.800194789" end_time="18:56:00" >
			</activity>
			<leg mode="car">
			</leg>
			<activity type="Home" x="360754.8621272049" y="3935318.0059290323" end_time="28:00:00" >
			</activity>
		</plan>

	</person>

<!-- ====================================================================== -->

	<person id="H15210R02P01">
		<plan selected="yes">
			<activity type="Home" x="363429.1657706833" y="3934915.2735163905" end_time="06:50:00" >
			</activity>
			<leg mode="car">
			</leg>
			<activity type="Work" x="359286.8259832793" y="3938109.8927130294" end_time="10:17:00" >
			</activity>
			<leg mode="car">
			</leg>
			<activity type="Other" x="359624.0388029443" y="3954486.6298342193" end_time="11:18:00" >
			</activity>
			<leg mode="car">
			</leg>
			<activity type="Work" x="359286.8259832793" y="3938109.8927130294" end_time="12:58:00" >
			</activity>
			<leg mode="car">
			</leg>
			<activity type="Home" x="363429.1657706833" y="3934915.2735163905" end_time="14:19:00" >
			</activity>
			<leg mode="car">
			</leg>
			<activity type="Work" x="359286.8259832793" y="3938109.8927130294" end_time="16:32:00" >
			</activity>
			<leg mode="car">
			</leg>
			<activity type="Home" x="363429.1657706833" y="3934915.2735163905" end_time="17:09:00" >
			</activity>
			<leg mode="car">
			</leg>
			<activity type="Other" x="361431.5820588912" y="3932503.72916368" end_time="17:45:00" >
			</activity>
			<leg mode="car">
			</leg>
			<activity type="Home" x="363429.1657706833" y="3934915.2735163905" end_time="28:00:00" >
			</activity>
		</plan>

	</person>

<!-- ====================================================================== -->

	<person id="H15656R05P02">
		<plan selected="yes">
			<activity type="Home" x="360370.66345193016" y="3945804.051116078" end_time="05:41:00" >
			</activity>
			<leg mode="car">
			</leg>
			<activity type="Other" x="358450.45161505113" y="3942308.3239064277" end_time="06:01:00" >
			</activity>
			<leg mode="car">
			</leg>
			<activity type="Other" x="357100.4209631181" y="3945840.0011730166" end_time="06:28:00" >
			</activity>
			<leg mode="car">
			</leg>
			<activity type="Other" x="359039.0262726347" y="3939664.6350077013" end_time="07:25:00" >
			</activity>
			<leg mode="car">
			</leg>
			<activity type="Work" x="357007.8038033217" y="3928473.227112268" end_time="15:46:00" >
			</activity>
			<leg mode="car">
			</leg>
			<activity type="Other" x="358251.71971388685" y="3938663.7129641087" end_time="16:16:00" >
			</activity>
			<leg mode="car">
			</leg>
			<activity type="Home" x="360370.66345193016" y="3945804.051116078" end_time="22:15:00" >
			</activity>
			<leg mode="car">
			</leg>
			<activity type="Other" x="353067.183623704" y="3942895.656257275" end_time="24:00:00" >
			</activity>
			<leg mode="car">
			</leg>
			<activity type="Other" x="334571.3440873003" y="3937435.6646366105" end_time="25:06:00" >
			</activity>
			<leg mode="car">
			</leg>
			<activity type="Home" x="360370.66345193016" y="3945804.051116078" end_time="28:00:00" >
			</activity>
		</plan>

	</person>

<!-- ====================================================================== -->

</population>
