<?xml version="1.0" encoding="utf-8"?>
<!DOCTYPE facilities SYSTEM "http://www.matsim.org/files/dtd/facilities_v1.dtd">

<facilities name="Facilities_Test1">

<!-- ====================================================================== -->

	<facility id="1" x="0.0" y="500.0">
		<activity type="home"/>
		<activity type="work"/>
		<!--<activity type="shop"/>-->
	</facility>

<!-- ====================================================================== -->

	<facility id="2" x="0.0" y="1500.0">
		<activity type="home"/>
		<activity type="work"/>
	</facility>

<!-- ====================================================================== -->

	<facility id="3" x="0.0" y="2500.0">
		<activity type="home"/>
		<activity type="work"/>
	</facility>

<!-- ====================================================================== -->

	<facility id="4" x="0.0" y="3500.0">
		<activity type="home"/>
		<activity type="work"/>
	</facility>

<!-- ====================================================================== -->

	<facility id="5" x="0.0" y="4500.0">
		<activity type="home"/>
		<activity type="work"/>
	</facility>

<!-- ====================================================================== -->

	<facility id="6" x="0.0" y="5500.0">
		<activity type="home"/>
		<activity type="work"/>
	</facility>

<!-- ====================================================================== -->

	<facility id="7" x="0.0" y="6500.0">
		<activity type="home"/>
		<activity type="work"/>
	</facility>

<!-- ====================================================================== -->

	<facility id="8" x="0.0" y="7500.0">
		<activity type="home"/>
		<activity type="work"/>
	</facility>

<!-- ====================================================================== -->

	<facility id="9" x="0.0" y="8500.0">
		<activity type="home"/>
		<activity type="work"/>
	</facility>

<!-- ====================================================================== -->

	<facility id="10" x="9000.0" y="500.0">
		<activity type="home"/>
		<activity type="work"/>
	</facility>

<!-- ====================================================================== -->

	<facility id="11" x="9000.0" y="1500.0">
		<activity type="home"/>
		<activity type="work"/>
	</facility>

<!-- ====================================================================== -->

	<facility id="12" x="9000.0" y="2500.0">
		<activity type="home"/>
		<activity type="work"/>
	</facility>

<!-- ====================================================================== -->

	<facility id="13" x="9000.0" y="3500.0">
		<activity type="home"/>
		<activity type="work"/>
	</facility>

<!-- ====================================================================== -->

	<facility id="14" x="9000.0" y="4500.0">
		<activity type="home"/>
		<activity type="work"/>
	</facility>

<!-- ====================================================================== -->

	<facility id="15" x="9000.0" y="5500.0">
		<activity type="home"/>
		<activity type="work"/>
	</facility>

<!-- ====================================================================== -->

	<facility id="16" x="9000.0" y="6500.0">
		<activity type="home"/>
		<activity type="work"/>
	</facility>

<!-- ====================================================================== -->

	<facility id="17" x="9000.0" y="7500.0">
		<activity type="home"/>
		<activity type="work"/>
	</facility>

<!-- ====================================================================== -->

	<facility id="18" x="9000.0" y="8500.0">
		<activity type="home"/>
		<activity type="work"/>
	</facility>

<!-- ====================================================================== -->

	<facility id="19" x="500.0" y="0.0">
		<activity type="home"/>
		<activity type="work"/>
	</facility>

<!-- ====================================================================== -->

	<facility id="20" x="1500.0" y="0.0">
		<activity type="home"/>
		<activity type="work"/>
	</facility>

<!-- ====================================================================== -->

	<facility id="21" x="2500.0" y="0.0">
		<activity type="home"/>
		<activity type="work"/>
	</facility>

<!-- ====================================================================== -->

	<facility id="22" x="3500.0" y="0.0">
		<activity type="home"/>
		<activity type="work"/>
	</facility>

<!-- ====================================================================== -->

	<facility id="23" x="4500.0" y="0.0">
		<activity type="home"/>
		<activity type="work"/>
	</facility>

<!-- ====================================================================== -->

	<facility id="24" x="5500.0" y="0.0">
		<activity type="home"/>
		<activity type="work"/>
	</facility>

<!-- ====================================================================== -->

	<facility id="25" x="6500.0" y="0.0">
		<activity type="home"/>
		<activity type="work"/>
	</facility>

<!-- ====================================================================== -->

	<facility id="26" x="7500.0" y="0.0">
		<activity type="home"/>
		<activity type="work"/>
	</facility>

<!-- ====================================================================== -->

	<facility id="27" x="8500.0" y="0.0">
		<activity type="home"/>
		<activity type="work"/>
	</facility>

<!-- ====================================================================== -->

	<facility id="28" x="500.0" y="9000.0">
		<activity type="home"/>
		<activity type="work"/>
	</facility>

<!-- ====================================================================== -->

	<facility id="29" x="1500.0" y="9000.0">
		<activity type="home"/>
		<activity type="work"/>
	</facility>

<!-- ====================================================================== -->

	<facility id="30" x="2500.0" y="9000.0">
		<activity type="home"/>
		<activity type="work"/>
	</facility>

<!-- ====================================================================== -->

	<facility id="31" x="3500.0" y="9000.0">
		<activity type="home"/>
		<activity type="work"/>
	</facility>

<!-- ====================================================================== -->

	<facility id="32" x="4500.0" y="9000.0">
		<activity type="home"/>
		<activity type="work"/>
	</facility>

<!-- ====================================================================== -->

	<facility id="33" x="5500.0" y="9000.0">
		<activity type="home"/>
		<activity type="work"/>
	</facility>

<!-- ====================================================================== -->

	<facility id="34" x="6500.0" y="9000.0">
		<activity type="home"/>
		<activity type="work"/>
	</facility>

<!-- ====================================================================== -->

	<facility id="35" x="7500.0" y="9000.0">
		<activity type="home"/>
		<activity type="work"/>
	</facility>

<!-- ====================================================================== -->

	<facility id="36" x="8500.0" y="9000.0">
		<activity type="home"/>
		<activity type="work"/>
	</facility>

<!-- ====================================================================== -->

	<facility id="37" x="4500.0" y="0.0">
		<activity type="shopping"/>
	</facility>

<!-- ====================================================================== -->

	<facility id="38" x="4500.0" y="2000.0">
		<activity type="shopping"/>
	</facility>

<!-- ====================================================================== -->

	<facility id="39" x="4500.0" y="4000.0">
		<activity type="shopping"/>
	</facility>

<!-- ====================================================================== -->

	<facility id="40" x="4500.0" y="6000.0">
		<activity type="shopping"/>
	</facility>

<!-- ====================================================================== -->

	<facility id="41" x="4500.0" y="8000.0">
		<activity type="shopping"/>
	</facility>

<!-- ====================================================================== -->

	<facility id="42" x="4500.0" y="1000.0">
		<activity type="leisure"/>
	</facility>

<!-- ====================================================================== -->

	<facility id="43" x="4500.0" y="3000.0">
		<activity type="leisure"/>
	</facility>

<!-- ====================================================================== -->

	<facility id="44" x="4500.0" y="5000.0">
		<activity type="leisure"/>
	</facility>

<!-- ====================================================================== -->

	<facility id="45" x="4500.0" y="7000.0">
		<activity type="leisure"/>
	</facility>

<!-- ====================================================================== -->

	<facility id="46" x="4500.0" y="9000.0">
		<activity type="leisure"/>
	</facility>

<!-- ====================================================================== -->

	<facility id="51" x="2231" y="2308">
		<activity type="parking"/>
	</facility>

<!-- ====================================================================== -->

	<facility id="52" x="6451" y="3705">
		<activity type="parking"/>
	</facility>

<!-- ====================================================================== -->

	<facility id="53" x="8418" y="7812">
		<activity type="parking"/>
	</facility>

<!-- ====================================================================== -->

	<facility id="54" x="8487" y="2573">
		<activity type="parking"/>
	</facility>

<!-- ====================================================================== -->

	<facility id="55" x="5711" y="3842">
		<activity type="parking"/>
	</facility>

<!-- ====================================================================== -->

	<facility id="56" x="483" y="2319">
		<activity type="parking"/>
	</facility>

<!-- ====================================================================== -->

	<facility id="57" x="397" y="8161">
		<activity type="parking"/>
	</facility>

<!-- ====================================================================== -->

	<facility id="58" x="3761" y="6582">
		<activity type="parking"/>
	</facility>

<!-- ====================================================================== -->

	<facility id="59" x="2590" y="2554">
		<activity type="parking"/>
	</facility>

<!-- ====================================================================== -->

	<facility id="60" x="1268" y="8143">
		<activity type="parking"/>
	</facility>

<!-- ====================================================================== -->

	<facility id="61" x="7255" y="6180">
		<activity type="parking"/>
	</facility>

<!-- ====================================================================== -->

	<facility id="62" x="8465" y="4480">
		<activity type="parking"/>
	</facility>

<!-- ====================================================================== -->

	<facility id="63" x="3275" y="1356">
		<activity type="parking"/>
	</facility>

<!-- ====================================================================== -->

	<facility id="64" x="8100" y="8087">
		<activity type="parking"/>
	</facility>

<!-- ====================================================================== -->

	<facility id="65" x="4000" y="3856">
		<activity type="parking"/>
	</facility>

<!-- ====================================================================== -->

	<facility id="66" x="2098" y="2988">
		<activity type="parking"/>
	</facility>
	
<!-- ====================================================================== -->

	<facility id="67" x="8081" y="478">
		<activity type="parking"/>
	</facility>

<!-- ====================================================================== -->

	<facility id="68" x="6688" y="8943">
		<activity type="parking"/>
	</facility>

<!-- ====================================================================== -->

	<facility id="69" x="2882" y="5103">
		<activity type="parking"/>
	</facility>

<!-- ====================================================================== -->

	<facility id="70" x="7422" y="2269">
		<activity type="parking"/>
	</facility>

<!-- ====================================================================== -->

	<facility id="71" x="1954" y="8791">
		<activity type="parking"/>
	</facility>

<!-- ====================================================================== -->

	<facility id="72" x="258" y="807">
		<activity type="parking"/>
	</facility>

<!-- ====================================================================== -->

	<facility id="73" x="137" y="5329">
		<activity type="parking"/>
	</facility>

<!-- ====================================================================== -->

	<facility id="74" x="3508" y="6894">
		<activity type="parking"/>
	</facility>

<!-- ====================================================================== -->

	<facility id="75" x="5587" y="4977">
		<activity type="parking"/>
	</facility>

<!-- ====================================================================== -->

	<facility id="76" x="2739" y="2663">
		<activity type="parking"/>
	</facility>

<!-- ====================================================================== -->

	<facility id="77" x="234" y="4096">
		<activity type="parking"/>
	</facility>

<!-- ====================================================================== -->

	<facility id="78" x="8983" y="4147">
		<activity type="parking"/>
	</facility>

<!-- ====================================================================== -->

	<facility id="79" x="8599" y="2096">
		<activity type="parking"/>
	</facility>

<!-- ====================================================================== -->

	<facility id="80" x="1925" y="379">
		<activity type="parking"/>
	</facility>

<!-- ====================================================================== -->

	<facility id="81" x="2213" y="1004">
		<activity type="parking"/>
	</facility>

<!-- ====================================================================== -->

	<facility id="82" x="1906" y="4411">
		<activity type="parking"/>
	</facility>

<!-- ====================================================================== -->

	<facility id="83" x="8377" y="4085">
		<activity type="parking"/>
	</facility>
	
<!-- ====================================================================== -->

	<facility id="84" x="1631" y="8817">
		<activity type="parking"/>
	</facility>

<!-- ====================================================================== -->

	<facility id="85" x="1392" y="6985">
		<activity type="parking"/>
	</facility>

<!-- ====================================================================== -->

	<facility id="86" x="5087" y="7928">
		<activity type="parking"/>
	</facility>

<!-- ====================================================================== -->

	<facility id="87" x="2115" y="2136">
		<activity type="parking"/>
	</facility>

<!-- ====================================================================== -->

	<facility id="88" x="1790" y="6145">
		<activity type="parking"/>
	</facility>

<!-- ====================================================================== -->

	<facility id="89" x="8848" y="5509">
		<activity type="parking"/>
	</facility>

<!-- ====================================================================== -->

	<facility id="90" x="4705" y="4691">
		<activity type="parking"/>
	</facility>

<!-- ====================================================================== -->

	<facility id="91" x="3059" y="5288">
		<activity type="parking"/>
	</facility>

<!-- ====================================================================== -->

	<facility id="92" x="7103" y="2689">
		<activity type="parking"/>
	</facility>

<!-- ====================================================================== -->

	<facility id="93" x="4169" y="170">
		<activity type="parking"/>
	</facility>

<!-- ====================================================================== -->

	<facility id="94" x="6335" y="6644">
		<activity type="parking"/>
	</facility>

<!-- ====================================================================== -->

	<facility id="95" x="6203" y="1776">
		<activity type="parking"/>
	</facility>

<!-- ====================================================================== -->
	<facility id="96" x="8170" y="4026">
		<activity type="parking"/>
	</facility>

<!-- ====================================================================== -->
	<facility id="97" x="8433" y="631">
		<activity type="parking"/>
	</facility>

<!-- ====================================================================== -->
	<facility id="98" x="5284" y="2255">
		<activity type="parking"/>
	</facility>

<!-- ====================================================================== -->
	<facility id="99" x="5858" y="3969">
		<activity type="parking"/>
	</facility>

<!-- ====================================================================== -->
	<facility id="100" x="2315" y="5735">
		<activity type="parking"/>
	</facility>

<!-- ====================================================================== -->
</facilities>