<?xml version="1.0" encoding="utf-8"?>
<!DOCTYPE plans SYSTEM "http://www.matsim.org/files/dtd/plans_v4.dtd">

<plans>
			
<!-- ====================================================================== -->

	<person id="testAgent1" employed="yes">
		<plan selected="yes">
			<act type="h" link="1" x="499.0" y="0.0" end_time="00:01:39" />
			<leg mode="pt">
			</leg>
			<act type="w" link="3" x="1499.0" y="0.0"  />
		</plan>

	</person>

<!-- ====================================================================== -->

	<person id="testAgent2" employed="yes">
		<plan selected="yes">
			<act type="h" link="1" x="499.0" y="0.0" end_time="00:01:40" />
			<leg mode="pt">
			</leg>
			<act type="w" link="3" x="1499.0" y="0.0" />
		</plan>

	</person>

<!-- ====================================================================== -->

	<person id="testAgent3" employed="yes">
		<plan selected="yes">
			<act type="h" link="2" x="999.0" y="0.0" end_time="00:01:39" />
			<leg mode="pt">
			</leg>
			<act type="w" link="6" x="2999.0" y="0.0"  />
		</plan>

	</person>

<!-- ====================================================================== -->
	<person id="testAgent4" employed="yes">
		<plan selected="yes">
			<act type="h" link="4" x="1999.0" y="0.0" end_time="00:01:39" />
			<leg mode="pt">
			</leg>
			<act type="w" link="5" x="2499.0" y="0.0"  />
		</plan>

	</person>

<!-- ====================================================================== -->

	<person id="testAgent5" employed="yes">
		<plan selected="yes">
			<act type="h" link="4" x="1999.0" y="0.0" end_time="00:01:40" />
			<leg mode="pt">
			</leg>
			<act type="w" link="6" x="2999.0" y="0.0" />
		</plan>

	</person>

<!-- ====================================================================== -->

</plans>