<?xml version="1.0" encoding="utf-8"?>
<!DOCTYPE population SYSTEM "http://www.matsim.org/files/dtd/population_v5.dtd">

<population>

<person id="person_0" employed="no">
		<plan selected="yes">
			<act type="home" x="-500.0" y="9000.0" end_time="08:00:00" />
			<leg mode="car">
			</leg>
			<act type="work" x="10500.0" y="9000.0" end_time="16:00:01" />
			<leg mode="car">
			</leg>
			<act type="home" x="-500.0" y="9000.0"/>
		</plan>

	</person>

<!-- ====================================================================== -->

	<person id="person_1" employed="no">
		<plan selected="yes">
			<act type="home" x="-500.0" y="9000.0" end_time="08:00:01" />
			<leg mode="car">
			</leg>
			<act type="work" x="10500.0" y="9000.0" end_time="16:00:01" />
			<leg mode="car">
			</leg>
			<act type="home" x="-500.0" y="9000.0" />
		</plan>

	</person>

<!-- ====================================================================== -->

	<person id="person_2" employed="no">
		<plan selected="yes">
			<act type="home" x="-500.0" y="9000.0" end_time="08:00:02" />
			<leg mode="car">
			</leg>
			<act type="work" x="10500.0" y="9000.0" end_time="16:00:01" />
			<leg mode="car">
			</leg>
			<act type="home" x="-500.0" y="9000.0" />
		</plan>

	</person>
	
<!-- ====================================================================== -->	

</population>
