<?xml version="1.0" encoding="UTF-8"?>
<!DOCTYPE network SYSTEM "http://www.matsim.org/files/dtd/network_v1.dtd">
<network>

<!-- ====================================================================== -->

	<nodes>
		<node id="TEST_STOP_1" x="-116.784582" y="36.868446" />
		<node id="TEST_STOP_2" x="-116.751677" y="36.915682" />
		<node id="dN_TEST_STOP_1" x="-115.784582" y="37.868446" />
		<node id="dN_TEST_STOP_2" x="-115.751677" y="37.915682" />
	</nodes>

<!-- ====================================================================== -->

	<links capperiod="01:00:00" effectivecellsize="7.5" effectivelanewidth="NaN">
		<link id="0" from="TEST_STOP_1" to="TEST_STOP_2" length="0.057567167039900315" freespeed="4.797263919991693E-5" capacity="1500.0" permlanes="1.0" oneway="1" modes="pt" />
		<link id="dL1_TEST_STOP_1" from="dN_TEST_STOP_1" to="TEST_STOP_1" length="1.4142135623730951" freespeed="1000.0" capacity="1500.0" permlanes="1.0" oneway="1" modes="pt" />
		<link id="dL1_TEST_STOP_2" from="dN_TEST_STOP_2" to="TEST_STOP_2" length="1.4142135623730951" freespeed="1000.0" capacity="1500.0" permlanes="1.0" oneway="1" modes="pt" />
		<link id="dL2_TEST_STOP_1" from="TEST_STOP_1" to="dN_TEST_STOP_1" length="1.4142135623730951" freespeed="1000.0" capacity="1500.0" permlanes="1.0" oneway="1" modes="pt" />
		<link id="dL2_TEST_STOP_2" from="TEST_STOP_2" to="dN_TEST_STOP_2" length="1.4142135623730951" freespeed="1000.0" capacity="1500.0" permlanes="1.0" oneway="1" modes="pt" />
	</links>

<!-- ====================================================================== -->

</network>
