<?xml version="1.0" encoding="utf-8"?>
<!DOCTYPE network SYSTEM "http://www.matsim.org/files/dtd/network_v1.dtd">

<network name="equil test network">
   <nodes>
   		<node id="1" x="0" y="0"/>
   		<node id="2" x="2000" y="0"/>
   		<node id="3" x="4828" y="2828"/>
   		<node id="4" x="4828" y="-2828"/>
		<node id="5" x="7656" y="0"/>
		<node id="6" x="9656" y="0"/>
   </nodes>
   <links capperiod="01:00:00">
   		 <link id="1" from="1" to="2" length="2000.00" capacity="1800" freespeed="13.88" permlanes="1" />
   		 <link id="2" from="2" to="3" length="2000.00" capacity="3600" freespeed="13.88" permlanes="2" />
   		 <link id="3" from="2" to="4" length="2000.00" capacity="3600" freespeed="13.88" permlanes="2" />
   		 <link id="4" from="3" to="5" length="2000.00" capacity="900" freespeed="13.88" permlanes="2" />
   		 <link id="5" from="4" to="5" length="2000.00" capacity="900" freespeed="13.88" permlanes="2" />
   		 <link id="6" from="5" to="6" length="2000.00" capacity="7200" freespeed="13.88" permlanes="4" />
   </links>
</network>
