<?xml version="1.0" encoding="UTF-8"?>

<vehicleDefinitions xmlns="http://www.matsim.org/files/dtd"
 xmlns:xsi="http://www.w3.org/2001/XMLSchema-instance"
 xsi:schemaLocation="http://www.matsim.org/files/dtd http://www.matsim.org/files/dtd/vehicleDefinitions_v1.0.xsd">
	<vehicleType id="type_1">
		<description>Normal Bus</description>
		<capacity>
			<seats persons="2"/>
			<standingRoom persons="0"/>
		</capacity>
		<length meter="50.0"/>
		<accessTime secondsPerPerson="1.0"/>
		<egressTime secondsPerPerson="0.75"/>
	</vehicleType>
	<vehicle id="veh_1" type="type_1"/>
	<vehicle id="veh_2" type="type_1"/>
	<vehicle id="veh_3" type="type_1"/>
</vehicleDefinitions>
