<?xml version="1.0" encoding="utf-8"?>
<!DOCTYPE population SYSTEM "http://www.matsim.org/files/dtd/population_v6.dtd">

<population>


	<!-- ====================================================================== -->

	<person id="person_0_1_0">
		<plan selected="yes">
			<activity type="start" link="HUB_0" end_time="00:59:59">
			</activity>
			<leg mode="uam" dep_time="00:59:59">
				<route type="generic" start_link="HUB_0" end_link="HUB_1" trav_time="undefined" distance="NaN"></route>
			</leg>
			<activity type="end" link="HUB_1">
			</activity>
		</plan>

	</person>

	<!-- ====================================================================== -->

	<person id="person_0_2_0">
		<plan selected="yes">
			<activity type="start" link="HUB_0" end_time="00:16:57">
			</activity>
			<leg mode="uam" dep_time="00:16:57">
				<route type="generic" start_link="HUB_0" end_link="HUB_2" trav_time="undefined" distance="NaN"></route>
			</leg>
			<activity type="end" link="HUB_2">
			</activity>
		</plan>

	</person>

	<!-- ====================================================================== -->

	<person id="person_0_3_0">
		<plan selected="yes">
			<activity type="start" link="HUB_0" end_time="00:13:53">
			</activity>
			<leg mode="uam" dep_time="00:13:53">
				<route type="generic" start_link="HUB_0" end_link="HUB_3" trav_time="undefined" distance="NaN"></route>
			</leg>
			<activity type="end" link="HUB_3">
			</activity>
		</plan>

	</person>

	<!-- ====================================================================== -->

	<person id="person_0_4_0">
		<plan selected="yes">
			<activity type="start" link="HUB_0" end_time="00:57:26">
			</activity>
			<leg mode="uam" dep_time="00:57:26">
				<route type="generic" start_link="HUB_0" end_link="HUB_4" trav_time="undefined" distance="NaN"></route>
			</leg>
			<activity type="end" link="HUB_4">
			</activity>
		</plan>

	</person>

	<!-- ====================================================================== -->

	<person id="person_0_5_0">
		<plan selected="yes">
			<activity type="start" link="HUB_0" end_time="00:32:24">
			</activity>
			<leg mode="uam" dep_time="00:32:24">
				<route type="generic" start_link="HUB_0" end_link="HUB_5" trav_time="undefined" distance="NaN"></route>
			</leg>
			<activity type="end" link="HUB_5">
			</activity>
		</plan>

	</person>

	<!-- ====================================================================== -->

	<person id="person_1_0_0">
		<plan selected="yes">
			<activity type="start" link="HUB_1" end_time="00:45:35">
			</activity>
			<leg mode="uam" dep_time="00:45:35">
				<route type="generic" start_link="HUB_1" end_link="HUB_0" trav_time="undefined" distance="NaN"></route>
			</leg>
			<activity type="end" link="HUB_0">
			</activity>
		</plan>

	</person>

	<!-- ====================================================================== -->

	<person id="person_1_2_0">
		<plan selected="yes">
			<activity type="start" link="HUB_1" end_time="00:18:56">
			</activity>
			<leg mode="uam" dep_time="00:18:56">
				<route type="generic" start_link="HUB_1" end_link="HUB_2" trav_time="undefined" distance="NaN"></route>
			</leg>
			<activity type="end" link="HUB_2">
			</activity>
		</plan>

	</person>

	<!-- ====================================================================== -->

	<person id="person_1_3_0">
		<plan selected="yes">
			<activity type="start" link="HUB_1" end_time="00:31:10">
			</activity>
			<leg mode="uam" dep_time="00:31:10">
				<route type="generic" start_link="HUB_1" end_link="HUB_3" trav_time="undefined" distance="NaN"></route>
			</leg>
			<activity type="end" link="HUB_3">
			</activity>
		</plan>

	</person>

	<!-- ====================================================================== -->

	<person id="person_1_4_0">
		<plan selected="yes">
			<activity type="start" link="HUB_1" end_time="00:28:31">
			</activity>
			<leg mode="uam" dep_time="00:28:31">
				<route type="generic" start_link="HUB_1" end_link="HUB_4" trav_time="undefined" distance="NaN"></route>
			</leg>
			<activity type="end" link="HUB_4">
			</activity>
		</plan>

	</person>

	<!-- ====================================================================== -->

	<person id="person_1_5_0">
		<plan selected="yes">
			<activity type="start" link="HUB_1" end_time="00:13:18">
			</activity>
			<leg mode="uam" dep_time="00:13:18">
				<route type="generic" start_link="HUB_1" end_link="HUB_5" trav_time="undefined" distance="NaN"></route>
			</leg>
			<activity type="end" link="HUB_5">
			</activity>
		</plan>

	</person>

	<!-- ====================================================================== -->

	<person id="person_2_0_0">
		<plan selected="yes">
			<activity type="start" link="HUB_2" end_time="00:01:49">
			</activity>
			<leg mode="uam" dep_time="00:01:49">
				<route type="generic" start_link="HUB_2" end_link="HUB_0" trav_time="undefined" distance="NaN"></route>
			</leg>
			<activity type="end" link="HUB_0">
			</activity>
		</plan>

	</person>

	<!-- ====================================================================== -->

	<person id="person_2_1_0">
		<plan selected="yes">
			<activity type="start" link="HUB_2" end_time="00:11:38">
			</activity>
			<leg mode="uam" dep_time="00:11:38">
				<route type="generic" start_link="HUB_2" end_link="HUB_1" trav_time="undefined" distance="NaN"></route>
			</leg>
			<activity type="end" link="HUB_1">
			</activity>
		</plan>

	</person>

	<!-- ====================================================================== -->

	<person id="person_2_3_0">
		<plan selected="yes">
			<activity type="start" link="HUB_2" end_time="00:34:47">
			</activity>
			<leg mode="uam" dep_time="00:34:47">
				<route type="generic" start_link="HUB_2" end_link="HUB_3" trav_time="undefined" distance="NaN"></route>
			</leg>
			<activity type="end" link="HUB_3">
			</activity>
		</plan>

	</person>

	<!-- ====================================================================== -->

	<person id="person_2_4_0">
		<plan selected="yes">
			<activity type="start" link="HUB_2" end_time="00:39:56">
			</activity>
			<leg mode="uam" dep_time="00:39:56">
				<route type="generic" start_link="HUB_2" end_link="HUB_4" trav_time="undefined" distance="NaN"></route>
			</leg>
			<activity type="end" link="HUB_4">
			</activity>
		</plan>

	</person>

	<!-- ====================================================================== -->

	<person id="person_2_5_0">
		<plan selected="yes">
			<activity type="start" link="HUB_2" end_time="00:33:38">
			</activity>
			<leg mode="uam" dep_time="00:33:38">
				<route type="generic" start_link="HUB_2" end_link="HUB_5" trav_time="undefined" distance="NaN"></route>
			</leg>
			<activity type="end" link="HUB_5">
			</activity>
		</plan>

	</person>

	<!-- ====================================================================== -->

	<person id="person_3_0_0">
		<plan selected="yes">
			<activity type="start" link="HUB_3" end_time="00:17:47">
			</activity>
			<leg mode="uam" dep_time="00:17:47">
				<route type="generic" start_link="HUB_3" end_link="HUB_0" trav_time="undefined" distance="NaN"></route>
			</leg>
			<activity type="end" link="HUB_0">
			</activity>
		</plan>

	</person>

	<!-- ====================================================================== -->

	<person id="person_3_1_0">
		<plan selected="yes">
			<activity type="start" link="HUB_3" end_time="00:03:46">
			</activity>
			<leg mode="uam" dep_time="00:03:46">
				<route type="generic" start_link="HUB_3" end_link="HUB_1" trav_time="undefined" distance="NaN"></route>
			</leg>
			<activity type="end" link="HUB_1">
			</activity>
		</plan>

	</person>

	<!-- ====================================================================== -->

	<person id="person_3_2_0">
		<plan selected="yes">
			<activity type="start" link="HUB_3" end_time="00:43:31">
			</activity>
			<leg mode="uam" dep_time="00:43:31">
				<route type="generic" start_link="HUB_3" end_link="HUB_2" trav_time="undefined" distance="NaN"></route>
			</leg>
			<activity type="end" link="HUB_2">
			</activity>
		</plan>

	</person>

	<!-- ====================================================================== -->

	<person id="person_3_4_0">
		<plan selected="yes">
			<activity type="start" link="HUB_3" end_time="00:42:49">
			</activity>
			<leg mode="uam" dep_time="00:42:49">
				<route type="generic" start_link="HUB_3" end_link="HUB_4" trav_time="undefined" distance="NaN"></route>
			</leg>
			<activity type="end" link="HUB_4">
			</activity>
		</plan>

	</person>

	<!-- ====================================================================== -->

	<person id="person_3_5_0">
		<plan selected="yes">
			<activity type="start" link="HUB_3" end_time="00:41:57">
			</activity>
			<leg mode="uam" dep_time="00:41:57">
				<route type="generic" start_link="HUB_3" end_link="HUB_5" trav_time="undefined" distance="NaN"></route>
			</leg>
			<activity type="end" link="HUB_5">
			</activity>
		</plan>

	</person>

	<!-- ====================================================================== -->

	<person id="person_4_0_0">
		<plan selected="yes">
			<activity type="start" link="HUB_4" end_time="00:07:45">
			</activity>
			<leg mode="uam" dep_time="00:07:45">
				<route type="generic" start_link="HUB_4" end_link="HUB_0" trav_time="undefined" distance="NaN"></route>
			</leg>
			<activity type="end" link="HUB_0">
			</activity>
		</plan>

	</person>

	<!-- ====================================================================== -->

	<person id="person_4_1_0">
		<plan selected="yes">
			<activity type="start" link="HUB_4" end_time="00:12:28">
			</activity>
			<leg mode="uam" dep_time="00:12:28">
				<route type="generic" start_link="HUB_4" end_link="HUB_1" trav_time="undefined" distance="NaN"></route>
			</leg>
			<activity type="end" link="HUB_1">
			</activity>
		</plan>

	</person>

	<!-- ====================================================================== -->

	<person id="person_4_2_0">
		<plan selected="yes">
			<activity type="start" link="HUB_4" end_time="00:04:59">
			</activity>
			<leg mode="uam" dep_time="00:04:59">
				<route type="generic" start_link="HUB_4" end_link="HUB_2" trav_time="undefined" distance="NaN"></route>
			</leg>
			<activity type="end" link="HUB_2">
			</activity>
		</plan>

	</person>

	<!-- ====================================================================== -->

	<person id="person_4_3_0">
		<plan selected="yes">
			<activity type="start" link="HUB_4" end_time="00:32:50">
			</activity>
			<leg mode="uam" dep_time="00:32:50">
				<route type="generic" start_link="HUB_4" end_link="HUB_3" trav_time="undefined" distance="NaN"></route>
			</leg>
			<activity type="end" link="HUB_3">
			</activity>
		</plan>

	</person>

	<!-- ====================================================================== -->

	<person id="person_4_5_0">
		<plan selected="yes">
			<activity type="start" link="HUB_4" end_time="00:17:31">
			</activity>
			<leg mode="uam" dep_time="00:17:31">
				<route type="generic" start_link="HUB_4" end_link="HUB_5" trav_time="undefined" distance="NaN"></route>
			</leg>
			<activity type="end" link="HUB_5">
			</activity>
		</plan>

	</person>

	<!-- ====================================================================== -->

	<person id="person_5_0_0">
		<plan selected="yes">
			<activity type="start" link="HUB_5" end_time="00:13:37">
			</activity>
			<leg mode="uam" dep_time="00:13:37">
				<route type="generic" start_link="HUB_5" end_link="HUB_0" trav_time="undefined" distance="NaN"></route>
			</leg>
			<activity type="end" link="HUB_0">
			</activity>
		</plan>

	</person>

	<!-- ====================================================================== -->

	<person id="person_5_1_0">
		<plan selected="yes">
			<activity type="start" link="HUB_5" end_time="00:08:26">
			</activity>
			<leg mode="uam" dep_time="00:08:26">
				<route type="generic" start_link="HUB_5" end_link="HUB_1" trav_time="undefined" distance="NaN"></route>
			</leg>
			<activity type="end" link="HUB_1">
			</activity>
		</plan>

	</person>

	<!-- ====================================================================== -->

	<person id="person_5_2_0">
		<plan selected="yes">
			<activity type="start" link="HUB_5" end_time="00:41:13">
			</activity>
			<leg mode="uam" dep_time="00:41:13">
				<route type="generic" start_link="HUB_5" end_link="HUB_2" trav_time="undefined" distance="NaN"></route>
			</leg>
			<activity type="end" link="HUB_2">
			</activity>
		</plan>

	</person>

	<!-- ====================================================================== -->

	<person id="person_5_3_0">
		<plan selected="yes">
			<activity type="start" link="HUB_5" end_time="00:26:26">
			</activity>
			<leg mode="uam" dep_time="00:26:26">
				<route type="generic" start_link="HUB_5" end_link="HUB_3" trav_time="undefined" distance="NaN"></route>
			</leg>
			<activity type="end" link="HUB_3">
			</activity>
		</plan>

	</person>

	<!-- ====================================================================== -->

	<person id="person_5_4_0">
		<plan selected="yes">
			<activity type="start" link="HUB_5" end_time="00:18:40">
			</activity>
			<leg mode="uam" dep_time="00:18:40">
				<route type="generic" start_link="HUB_5" end_link="HUB_4" trav_time="undefined" distance="NaN"></route>
			</leg>
			<activity type="end" link="HUB_4">
			</activity>
		</plan>

	</person>

	<!-- ====================================================================== -->

</population>
