<?xml version="1.0" encoding="utf-8"?>
<!DOCTYPE population SYSTEM "http://www.matsim.org/files/dtd/population_v6.dtd">

<population>


    <!-- ====================================================================== -->

    <person id="1">
        <plan selected="yes">
            <activity type="home" link="116" x="-200.0" y="800.0" end_time="08:00:00">
            </activity>
            <leg mode="car">
            </leg>
            <activity type="home" link="259" x="0.0" y="0.0" end_time="16:00:00">
                <attributes>
                    <!-- the pattern is the following
                    <attribute name="commercialJob[NUMBER]" class="java.util.Collection">["OPERATOR","CAPACITYDEMAND","EARLIESTSTART","LATESTSTART","DURATION"]</attribute> !-->
                    <attribute name="commercialJob1" class="java.util.Collection">["salamiPizza","1","43200","46800","180"]</attribute>
                </attributes>
            </activity>
            <leg mode="car">
            </leg>
            <activity type="home" link="116" x="-200.0" y="800.0">
            </activity>
        </plan>

    </person>

    <person id="2">
        <plan selected="yes">
            <activity type="home" x="0.0" y="0.0" end_time="08:00:00">
            </activity>
            <leg mode="car">
            </leg>
            <activity type="home" x="-200.0" y="800.0" end_time="16:00:00">
                <attributes>
                    <attribute name="commercialJob1" class="java.util.Collection">["salamiPizza","1","43200","46800","180"]</attribute>
                </attributes>
            </activity>
            <leg mode="car">
            </leg>
            <activity type="home" x="0.0" y="0.0">
            </activity>
        </plan>

    </person>

    <person id="3">
        <plan selected="yes">
            <activity type="home" link="116" x="-200.0" y="800.0" end_time="08:00:00">
            </activity>
            <leg mode="car">
            </leg>
            <activity type="home" link="259" x="0.0" y="0.0" end_time="16:00:00">
                <attributes>
                    <!-- the pattern is the following
                    <attribute name="commercialJob[NUMBER]" class="java.util.Collection">["TYPE","OPERATOR","CAPACITYDEMAND","EARLIESTSTART","LATESTSTART","DURATION"]</attribute> !-->
                    <attribute name="commercialJob1" class="java.util.Collection">["salamiPizza","1","50000","51000","180"]</attribute>
                </attributes>
            </activity>
            <leg mode="car">
            </leg>
            <activity type="home" link="116" x="-200.0" y="800.0">
            </activity>
        </plan>

    </person>
	
	 <person id="4">
        <plan selected="yes">
            <activity type="home" link="255" x="-200.0" y="800.0" end_time="08:00:00">
            </activity>
            <leg mode="car">
            </leg>
            <activity type="home" link="112" x="0.0" y="0.0" end_time="16:00:00">
            </activity>
            <leg mode="car">
            </leg>
            <activity type="home" link="116" x="-200.0" y="800.0">
            </activity>
        </plan>

    </person>


</population>
