<?xml version="1.0" encoding="UTF-8"?>
<!DOCTYPE transitSchedule SYSTEM "http://www.matsim.org/files/dtd/transitSchedule_v1.dtd">

<transitSchedule>
	<transitStops>
		<stopFacility id="1" x="1000.0" y="1000.0" linkRefId="11" isBlocking="false"/>
		<stopFacility id="2a" x="2050.0" y="2950.0" linkRefId="12" isBlocking="false"/>
		<stopFacility id="2b" x="2050.0" y="2950.0" linkRefId="32" isBlocking="false"/>
		<stopFacility id="3" x="3950.0" y="1050.0" linkRefId="33" isBlocking="false"/>
		<stopFacility id="para_1112" x="1000.0" y="2000.0" linkRefId="1112" isBlocking="false"/>
		<stopFacility id="para_1121" x="2000.0" y="1000.0" linkRefId="1121" isBlocking="false"/>
		<stopFacility id="para_1211" x="1000.0" y="1000.0" linkRefId="1211" isBlocking="false"/>
		<stopFacility id="para_1213" x="1000.0" y="3000.0" linkRefId="1213" isBlocking="false"/>
		<stopFacility id="para_1222" x="2000.0" y="2000.0" linkRefId="1222" isBlocking="false"/>
		<stopFacility id="para_1312" x="1000.0" y="2000.0" linkRefId="1312" isBlocking="false"/>
		<stopFacility id="para_1314" x="1000.0" y="4000.0" linkRefId="1314" isBlocking="false"/>
		<stopFacility id="para_1323" x="2000.0" y="3000.0" linkRefId="1323" isBlocking="false"/>
		<stopFacility id="para_1413" x="1000.0" y="3000.0" linkRefId="1413" isBlocking="false"/>
		<stopFacility id="para_1424" x="2000.0" y="4000.0" linkRefId="1424" isBlocking="false"/>
		<stopFacility id="para_2111" x="1000.0" y="1000.0" linkRefId="2111" isBlocking="false"/>
		<stopFacility id="para_2122" x="2000.0" y="2000.0" linkRefId="2122" isBlocking="false"/>
		<stopFacility id="para_2131" x="3000.0" y="1000.0" linkRefId="2131" isBlocking="false"/>
		<stopFacility id="para_2212" x="1000.0" y="2000.0" linkRefId="2212" isBlocking="false"/>
		<stopFacility id="para_2221" x="2000.0" y="1000.0" linkRefId="2221" isBlocking="false"/>
		<stopFacility id="para_2223" x="2000.0" y="3000.0" linkRefId="2223" isBlocking="false"/>
		<stopFacility id="para_2232" x="3000.0" y="2000.0" linkRefId="2232" isBlocking="false"/>
		<stopFacility id="para_2313" x="1000.0" y="3000.0" linkRefId="2313" isBlocking="false"/>
		<stopFacility id="para_2322" x="2000.0" y="2000.0" linkRefId="2322" isBlocking="false"/>
		<stopFacility id="para_2324" x="2000.0" y="4000.0" linkRefId="2324" isBlocking="false"/>
		<stopFacility id="para_2333" x="3000.0" y="3000.0" linkRefId="2333" isBlocking="false"/>
		<stopFacility id="para_2414" x="1000.0" y="4000.0" linkRefId="2414" isBlocking="false"/>
		<stopFacility id="para_2423" x="2000.0" y="3000.0" linkRefId="2423" isBlocking="false"/>
		<stopFacility id="para_2434" x="3000.0" y="4000.0" linkRefId="2434" isBlocking="false"/>
		<stopFacility id="para_3121" x="2000.0" y="1000.0" linkRefId="3121" isBlocking="false"/>
		<stopFacility id="para_3132" x="3000.0" y="2000.0" linkRefId="3132" isBlocking="false"/>
		<stopFacility id="para_3141" x="4000.0" y="1000.0" linkRefId="3141" isBlocking="false"/>
		<stopFacility id="para_3222" x="2000.0" y="2000.0" linkRefId="3222" isBlocking="false"/>
		<stopFacility id="para_3231" x="3000.0" y="1000.0" linkRefId="3231" isBlocking="false"/>
		<stopFacility id="para_3233" x="3000.0" y="3000.0" linkRefId="3233" isBlocking="false"/>
		<stopFacility id="para_3242" x="4000.0" y="2000.0" linkRefId="3242" isBlocking="false"/>
		<stopFacility id="para_3323" x="2000.0" y="3000.0" linkRefId="3323" isBlocking="false"/>
		<stopFacility id="para_3332" x="3000.0" y="2000.0" linkRefId="3332" isBlocking="false"/>
		<stopFacility id="para_3334" x="3000.0" y="4000.0" linkRefId="3334" isBlocking="false"/>
		<stopFacility id="para_3343" x="4000.0" y="3000.0" linkRefId="3343" isBlocking="false"/>
		<stopFacility id="para_3424" x="2000.0" y="4000.0" linkRefId="3424" isBlocking="false"/>
		<stopFacility id="para_3433" x="3000.0" y="3000.0" linkRefId="3433" isBlocking="false"/>
		<stopFacility id="para_3444" x="4000.0" y="4000.0" linkRefId="3444" isBlocking="false"/>
		<stopFacility id="para_4131" x="3000.0" y="1000.0" linkRefId="4131" isBlocking="false"/>
		<stopFacility id="para_4142" x="4000.0" y="2000.0" linkRefId="4142" isBlocking="false"/>
		<stopFacility id="para_4232" x="3000.0" y="2000.0" linkRefId="4232" isBlocking="false"/>
		<stopFacility id="para_4241" x="4000.0" y="1000.0" linkRefId="4241" isBlocking="false"/>
		<stopFacility id="para_4243" x="4000.0" y="3000.0" linkRefId="4243" isBlocking="false"/>
		<stopFacility id="para_4333" x="3000.0" y="3000.0" linkRefId="4333" isBlocking="false"/>
		<stopFacility id="para_4342" x="4000.0" y="2000.0" linkRefId="4342" isBlocking="false"/>
		<stopFacility id="para_4344" x="4000.0" y="4000.0" linkRefId="4344" isBlocking="false"/>
		<stopFacility id="para_4434" x="3000.0" y="4000.0" linkRefId="4434" isBlocking="false"/>
		<stopFacility id="para_4443" x="4000.0" y="3000.0" linkRefId="4443" isBlocking="false"/>
	</transitStops>
	<transitLine id="Blue Line">
		<transitRoute id="1to3to1">
			<transportMode>train</transportMode>
			<routeProfile>
				<stop refId="1" departureOffset="00:00:00" awaitDeparture="false"/>
				<stop refId="2a" arrivalOffset="00:03:05" departureOffset="00:03:20" awaitDeparture="false"/>
				<stop refId="3" arrivalOffset="00:07:05" departureOffset="00:07:20" awaitDeparture="false"/>
				<stop refId="2b" arrivalOffset="00:11:05" departureOffset="00:11:20" awaitDeparture="false"/>
				<stop refId="1" arrivalOffset="00:14:25" awaitDeparture="false"/>
			</routeProfile>
			<route>
				<link refId="11"/>
				<link refId="12"/>
				<link refId="23"/>
				<link refId="33"/>
				<link refId="32"/>
				<link refId="21"/>
				<link refId="11"/>
			</route>
			<departures>
				<departure id="10001" departureTime="05:00:00" vehicleRefId="tr_0"/>
				<departure id="10002" departureTime="05:20:00" vehicleRefId="tr_0"/>
				<departure id="10003" departureTime="05:40:00" vehicleRefId="tr_0"/>
				<departure id="10004" departureTime="06:00:00" vehicleRefId="tr_0"/>
				<departure id="10005" departureTime="06:20:00" vehicleRefId="tr_0"/>
				<departure id="10006" departureTime="06:40:00" vehicleRefId="tr_0"/>
				<departure id="10007" departureTime="07:00:00" vehicleRefId="tr_0"/>
				<departure id="10008" departureTime="07:20:00" vehicleRefId="tr_0"/>
				<departure id="10009" departureTime="07:40:00" vehicleRefId="tr_0"/>
				<departure id="10010" departureTime="08:00:00" vehicleRefId="tr_0"/>
				<departure id="10011" departureTime="08:20:00" vehicleRefId="tr_0"/>
				<departure id="10012" departureTime="08:40:00" vehicleRefId="tr_0"/>
				<departure id="10013" departureTime="09:00:00" vehicleRefId="tr_0"/>
				<departure id="10014" departureTime="09:20:00" vehicleRefId="tr_0"/>
				<departure id="10015" departureTime="09:40:00" vehicleRefId="tr_0"/>
				<departure id="10016" departureTime="10:00:00" vehicleRefId="tr_0"/>
				<departure id="10017" departureTime="10:20:00" vehicleRefId="tr_0"/>
				<departure id="10018" departureTime="10:40:00" vehicleRefId="tr_0"/>
				<departure id="10019" departureTime="11:00:00" vehicleRefId="tr_0"/>
				<departure id="10020" departureTime="11:20:00" vehicleRefId="tr_0"/>
				<departure id="10021" departureTime="11:40:00" vehicleRefId="tr_0"/>
				<departure id="10022" departureTime="12:00:00" vehicleRefId="tr_0"/>
				<departure id="10023" departureTime="12:20:00" vehicleRefId="tr_0"/>
				<departure id="10024" departureTime="12:40:00" vehicleRefId="tr_0"/>
				<departure id="11001" departureTime="05:10:00" vehicleRefId="tr_10"/>
				<departure id="11002" departureTime="05:30:00" vehicleRefId="tr_10"/>
				<departure id="11003" departureTime="05:50:00" vehicleRefId="tr_10"/>
				<departure id="11004" departureTime="06:10:00" vehicleRefId="tr_10"/>
				<departure id="11005" departureTime="06:30:00" vehicleRefId="tr_10"/>
				<departure id="11006" departureTime="06:50:00" vehicleRefId="tr_10"/>
				<departure id="11007" departureTime="07:10:00" vehicleRefId="tr_10"/>
				<departure id="11008" departureTime="07:30:00" vehicleRefId="tr_10"/>
				<departure id="11009" departureTime="07:50:00" vehicleRefId="tr_10"/>
				<departure id="11010" departureTime="08:10:00" vehicleRefId="tr_10"/>
				<departure id="11011" departureTime="08:30:00" vehicleRefId="tr_10"/>
				<departure id="11012" departureTime="08:50:00" vehicleRefId="tr_10"/>
				<departure id="11013" departureTime="09:10:00" vehicleRefId="tr_10"/>
				<departure id="11014" departureTime="09:30:00" vehicleRefId="tr_10"/>
				<departure id="11015" departureTime="09:50:00" vehicleRefId="tr_10"/>
				<departure id="11016" departureTime="10:10:00" vehicleRefId="tr_10"/>
				<departure id="11017" departureTime="10:30:00" vehicleRefId="tr_10"/>
				<departure id="11018" departureTime="10:50:00" vehicleRefId="tr_10"/>
				<departure id="11019" departureTime="11:10:00" vehicleRefId="tr_10"/>
				<departure id="11020" departureTime="11:30:00" vehicleRefId="tr_10"/>
				<departure id="11021" departureTime="11:50:00" vehicleRefId="tr_10"/>
				<departure id="11022" departureTime="12:10:00" vehicleRefId="tr_10"/>
				<departure id="11023" departureTime="12:30:00" vehicleRefId="tr_10"/>
				<departure id="11024" departureTime="12:50:00" vehicleRefId="tr_10"/>
			</departures>
		</transitRoute>
	</transitLine>
	<transitLine id="para_0_10">
		<transitRoute id="para_0_10-9_4">
			<transportMode>pt</transportMode>
			<routeProfile>
				<stop refId="para_2414" arrivalOffset="00:00:00" departureOffset="00:00:00" awaitDeparture="false"/>
				<stop refId="para_1413" arrivalOffset="00:03:45" departureOffset="00:03:45" awaitDeparture="false"/>
				<stop refId="para_1312" arrivalOffset="00:07:06" departureOffset="00:07:06" awaitDeparture="false"/>
				<stop refId="para_1211" arrivalOffset="00:10:27" departureOffset="00:10:27" awaitDeparture="false"/>
				<stop refId="para_1121" arrivalOffset="00:14:01" departureOffset="00:14:01" awaitDeparture="false"/>
				<stop refId="para_2111" arrivalOffset="00:17:22" departureOffset="00:17:22" awaitDeparture="false"/>
				<stop refId="para_1112" arrivalOffset="00:21:07" departureOffset="00:21:07" awaitDeparture="false"/>
				<stop refId="para_1213" arrivalOffset="00:24:28" departureOffset="00:24:28" awaitDeparture="false"/>
				<stop refId="para_1314" arrivalOffset="00:27:49" departureOffset="00:27:49" awaitDeparture="false"/>
				<stop refId="para_1424" arrivalOffset="00:31:23" departureOffset="00:31:23" awaitDeparture="false"/>
				<stop refId="para_2414" arrivalOffset="00:34:44" departureOffset="00:34:44" awaitDeparture="false"/>
			</routeProfile>
			<route>
				<link refId="2414"/>
				<link refId="1413"/>
				<link refId="1312"/>
				<link refId="1211"/>
				<link refId="1121"/>
				<link refId="2111"/>
				<link refId="1112"/>
				<link refId="1213"/>
				<link refId="1314"/>
				<link refId="1424"/>
				<link refId="2414"/>
			</route>
			<departures>
				<departure id="0" departureTime="07:30:00" vehicleRefId="para_0_10-9_4-0"/>
				<departure id="1" departureTime="08:05:44" vehicleRefId="para_0_10-9_4-0"/>
				<departure id="10" departureTime="13:27:20" vehicleRefId="para_0_10-9_4-0"/>
				<departure id="11" departureTime="07:47:22" vehicleRefId="para_0_10-9_4-1"/>
				<departure id="12" departureTime="08:23:06" vehicleRefId="para_0_10-9_4-1"/>
				<departure id="13" departureTime="08:58:50" vehicleRefId="para_0_10-9_4-1"/>
				<departure id="14" departureTime="09:34:34" vehicleRefId="para_0_10-9_4-1"/>
				<departure id="15" departureTime="10:10:18" vehicleRefId="para_0_10-9_4-1"/>
				<departure id="16" departureTime="10:46:02" vehicleRefId="para_0_10-9_4-1"/>
				<departure id="17" departureTime="11:21:46" vehicleRefId="para_0_10-9_4-1"/>
				<departure id="18" departureTime="11:57:30" vehicleRefId="para_0_10-9_4-1"/>
				<departure id="19" departureTime="12:33:14" vehicleRefId="para_0_10-9_4-1"/>
				<departure id="2" departureTime="08:41:28" vehicleRefId="para_0_10-9_4-0"/>
				<departure id="20" departureTime="13:08:58" vehicleRefId="para_0_10-9_4-1"/>
				<departure id="21" departureTime="13:44:42" vehicleRefId="para_0_10-9_4-1"/>
				<departure id="3" departureTime="09:17:12" vehicleRefId="para_0_10-9_4-0"/>
				<departure id="4" departureTime="09:52:56" vehicleRefId="para_0_10-9_4-0"/>
				<departure id="5" departureTime="10:28:40" vehicleRefId="para_0_10-9_4-0"/>
				<departure id="6" departureTime="11:04:24" vehicleRefId="para_0_10-9_4-0"/>
				<departure id="7" departureTime="11:40:08" vehicleRefId="para_0_10-9_4-0"/>
				<departure id="8" departureTime="12:15:52" vehicleRefId="para_0_10-9_4-0"/>
				<departure id="9" departureTime="12:51:36" vehicleRefId="para_0_10-9_4-0"/>
			</departures>
		</transitRoute>
		<transitRoute id="para_0_10-12_5">
			<transportMode>pt</transportMode>
			<routeProfile>
				<stop refId="para_2414" arrivalOffset="00:00:00" departureOffset="00:00:00" awaitDeparture="false"/>
				<stop refId="para_1413" arrivalOffset="00:03:45" departureOffset="00:03:45" awaitDeparture="false"/>
				<stop refId="para_1312" arrivalOffset="00:07:06" departureOffset="00:07:06" awaitDeparture="false"/>
				<stop refId="para_1211" arrivalOffset="00:10:27" departureOffset="00:10:27" awaitDeparture="false"/>
				<stop refId="para_1121" arrivalOffset="00:14:01" departureOffset="00:14:01" awaitDeparture="false"/>
				<stop refId="para_2111" arrivalOffset="00:17:22" departureOffset="00:17:22" awaitDeparture="false"/>
				<stop refId="para_1112" arrivalOffset="00:21:06" departureOffset="00:21:06" awaitDeparture="false"/>
				<stop refId="para_1213" arrivalOffset="00:24:27" departureOffset="00:24:27" awaitDeparture="false"/>
				<stop refId="para_1314" arrivalOffset="00:27:48" departureOffset="00:27:48" awaitDeparture="false"/>
				<stop refId="para_1424" arrivalOffset="00:31:22" departureOffset="00:31:22" awaitDeparture="false"/>
				<stop refId="para_2414" arrivalOffset="00:34:43" departureOffset="00:34:43" awaitDeparture="false"/>
			</routeProfile>
			<route>
				<link refId="2414"/>
				<link refId="1413"/>
				<link refId="1312"/>
				<link refId="1211"/>
				<link refId="1121"/>
				<link refId="2111"/>
				<link refId="1112"/>
				<link refId="1213"/>
				<link refId="1314"/>
				<link refId="1424"/>
				<link refId="2414"/>
			</route>
			<departures>
				<departure id="0" departureTime="07:30:00" vehicleRefId="para_0_10-12_5-0"/>
				<departure id="1" departureTime="08:05:43" vehicleRefId="para_0_10-12_5-0"/>
				<departure id="10" departureTime="13:27:15" vehicleRefId="para_0_10-12_5-0"/>
				<departure id="2" departureTime="08:41:27" vehicleRefId="para_0_10-12_5-0"/>
				<departure id="3" departureTime="09:17:10" vehicleRefId="para_0_10-12_5-0"/>
				<departure id="4" departureTime="09:52:54" vehicleRefId="para_0_10-12_5-0"/>
				<departure id="5" departureTime="10:28:37" vehicleRefId="para_0_10-12_5-0"/>
				<departure id="6" departureTime="11:04:21" vehicleRefId="para_0_10-12_5-0"/>
				<departure id="7" departureTime="11:40:05" vehicleRefId="para_0_10-12_5-0"/>
				<departure id="8" departureTime="12:15:48" vehicleRefId="para_0_10-12_5-0"/>
				<departure id="9" departureTime="12:51:32" vehicleRefId="para_0_10-12_5-0"/>
			</departures>
		</transitRoute>
	</transitLine>
	<transitLine id="para_0_2">
		<transitRoute id="para_0_2-13_10">
			<transportMode>pt</transportMode>
			<routeProfile>
				<stop refId="para_1314" arrivalOffset="00:00:00" departureOffset="00:00:00" awaitDeparture="false"/>
				<stop refId="para_1413" arrivalOffset="00:03:20" departureOffset="00:03:20" awaitDeparture="false"/>
				<stop refId="para_1312" arrivalOffset="00:06:40" departureOffset="00:06:40" awaitDeparture="false"/>
				<stop refId="para_1222" arrivalOffset="00:10:00" departureOffset="00:10:00" awaitDeparture="false"/>
				<stop refId="para_2232" arrivalOffset="00:13:20" departureOffset="00:13:20" awaitDeparture="false"/>
				<stop refId="para_3242" arrivalOffset="00:16:40" departureOffset="00:16:40" awaitDeparture="false"/>
				<stop refId="para_4241" arrivalOffset="00:20:00" departureOffset="00:20:00" awaitDeparture="false"/>
				<stop refId="para_4131" arrivalOffset="00:23:20" departureOffset="00:23:20" awaitDeparture="false"/>
				<stop refId="para_3121" arrivalOffset="00:26:40" departureOffset="00:26:40" awaitDeparture="false"/>
				<stop refId="para_2111" arrivalOffset="00:30:00" departureOffset="00:30:00" awaitDeparture="false"/>
				<stop refId="para_1112" arrivalOffset="00:33:20" departureOffset="00:33:20" awaitDeparture="false"/>
				<stop refId="para_1213" arrivalOffset="00:36:40" departureOffset="00:36:40" awaitDeparture="false"/>
				<stop refId="para_1314" arrivalOffset="00:40:00" departureOffset="00:40:00" awaitDeparture="false"/>
			</routeProfile>
			<route>
				<link refId="1314"/>
				<link refId="1413"/>
				<link refId="1312"/>
				<link refId="1222"/>
				<link refId="2232"/>
				<link refId="3242"/>
				<link refId="4241"/>
				<link refId="4131"/>
				<link refId="3121"/>
				<link refId="2111"/>
				<link refId="1112"/>
				<link refId="1213"/>
				<link refId="1314"/>
			</route>
			<departures>
				<departure id="0" departureTime="12:30:00" vehicleRefId="para_0_2-13_10-0"/>
				<departure id="1" departureTime="13:11:00" vehicleRefId="para_0_2-13_10-0"/>
				<departure id="2" departureTime="13:52:00" vehicleRefId="para_0_2-13_10-0"/>
				<departure id="3" departureTime="14:33:00" vehicleRefId="para_0_2-13_10-0"/>
			</departures>
		</transitRoute>
	</transitLine>
	<transitLine id="para_0_3">
		<transitRoute id="para_0_3-8_6">
			<transportMode>pt</transportMode>
			<routeProfile>
				<stop refId="para_1314" arrivalOffset="00:00:00" departureOffset="00:00:00" awaitDeparture="false"/>
				<stop refId="para_1413" arrivalOffset="00:03:27" departureOffset="00:03:27" awaitDeparture="false"/>
				<stop refId="para_1312" arrivalOffset="00:06:48" departureOffset="00:06:48" awaitDeparture="false"/>
				<stop refId="para_1211" arrivalOffset="00:10:09" departureOffset="00:10:09" awaitDeparture="false"/>
				<stop refId="para_1121" arrivalOffset="00:13:36" departureOffset="00:13:36" awaitDeparture="false"/>
				<stop refId="para_2111" arrivalOffset="00:16:57" departureOffset="00:16:57" awaitDeparture="false"/>
				<stop refId="para_1112" arrivalOffset="00:20:30" departureOffset="00:20:30" awaitDeparture="false"/>
				<stop refId="para_1213" arrivalOffset="00:23:51" departureOffset="00:23:51" awaitDeparture="false"/>
				<stop refId="para_1314" arrivalOffset="00:27:12" departureOffset="00:27:12" awaitDeparture="false"/>
			</routeProfile>
			<route>
				<link refId="1314"/>
				<link refId="1413"/>
				<link refId="1312"/>
				<link refId="1211"/>
				<link refId="1121"/>
				<link refId="2111"/>
				<link refId="1112"/>
				<link refId="1213"/>
				<link refId="1314"/>
			</route>
			<departures>
				<departure id="0" departureTime="10:30:00" vehicleRefId="para_0_3-8_6-0"/>
				<departure id="1" departureTime="10:58:12" vehicleRefId="para_0_3-8_6-0"/>
				<departure id="10" departureTime="15:12:03" vehicleRefId="para_0_3-8_6-0"/>
				<departure id="11" departureTime="15:40:15" vehicleRefId="para_0_3-8_6-0"/>
				<departure id="12" departureTime="16:08:27" vehicleRefId="para_0_3-8_6-0"/>
				<departure id="13" departureTime="16:36:40" vehicleRefId="para_0_3-8_6-0"/>
				<departure id="14" departureTime="17:04:52" vehicleRefId="para_0_3-8_6-0"/>
				<departure id="15" departureTime="17:33:04" vehicleRefId="para_0_3-8_6-0"/>
				<departure id="16" departureTime="18:01:17" vehicleRefId="para_0_3-8_6-0"/>
				<departure id="2" departureTime="11:26:24" vehicleRefId="para_0_3-8_6-0"/>
				<departure id="3" departureTime="11:54:36" vehicleRefId="para_0_3-8_6-0"/>
				<departure id="4" departureTime="12:22:49" vehicleRefId="para_0_3-8_6-0"/>
				<departure id="5" departureTime="12:51:01" vehicleRefId="para_0_3-8_6-0"/>
				<departure id="6" departureTime="13:19:13" vehicleRefId="para_0_3-8_6-0"/>
				<departure id="7" departureTime="13:47:26" vehicleRefId="para_0_3-8_6-0"/>
				<departure id="8" departureTime="14:15:38" vehicleRefId="para_0_3-8_6-0"/>
				<departure id="9" departureTime="14:43:50" vehicleRefId="para_0_3-8_6-0"/>
			</departures>
		</transitRoute>
		<transitRoute id="para_0_3-13_9">
			<transportMode>pt</transportMode>
			<routeProfile>
				<stop refId="para_1314" arrivalOffset="00:00:00" departureOffset="00:00:00" awaitDeparture="false"/>
				<stop refId="para_1413" arrivalOffset="00:03:20" departureOffset="00:03:20" awaitDeparture="false"/>
				<stop refId="para_1312" arrivalOffset="00:06:40" departureOffset="00:06:40" awaitDeparture="false"/>
				<stop refId="para_1211" arrivalOffset="00:10:00" departureOffset="00:10:00" awaitDeparture="false"/>
				<stop refId="para_1121" arrivalOffset="00:13:20" departureOffset="00:13:20" awaitDeparture="false"/>
				<stop refId="para_2111" arrivalOffset="00:16:40" departureOffset="00:16:40" awaitDeparture="false"/>
				<stop refId="para_1112" arrivalOffset="00:20:00" departureOffset="00:20:00" awaitDeparture="false"/>
				<stop refId="para_1213" arrivalOffset="00:23:20" departureOffset="00:23:20" awaitDeparture="false"/>
				<stop refId="para_1314" arrivalOffset="00:26:40" departureOffset="00:26:40" awaitDeparture="false"/>
			</routeProfile>
			<route>
				<link refId="1314"/>
				<link refId="1413"/>
				<link refId="1312"/>
				<link refId="1211"/>
				<link refId="1121"/>
				<link refId="2111"/>
				<link refId="1112"/>
				<link refId="1213"/>
				<link refId="1314"/>
			</route>
			<departures>
				<departure id="0" departureTime="07:30:00" vehicleRefId="para_0_3-13_9-0"/>
				<departure id="1" departureTime="07:57:40" vehicleRefId="para_0_3-13_9-0"/>
				<departure id="10" departureTime="12:06:40" vehicleRefId="para_0_3-13_9-0"/>
				<departure id="11" departureTime="12:34:20" vehicleRefId="para_0_3-13_9-0"/>
				<departure id="12" departureTime="13:02:00" vehicleRefId="para_0_3-13_9-0"/>
				<departure id="13" departureTime="13:29:40" vehicleRefId="para_0_3-13_9-0"/>
				<departure id="14" departureTime="13:57:20" vehicleRefId="para_0_3-13_9-0"/>
				<departure id="15" departureTime="14:25:00" vehicleRefId="para_0_3-13_9-0"/>
				<departure id="16" departureTime="14:52:40" vehicleRefId="para_0_3-13_9-0"/>
				<departure id="17" departureTime="15:20:20" vehicleRefId="para_0_3-13_9-0"/>
				<departure id="18" departureTime="15:48:00" vehicleRefId="para_0_3-13_9-0"/>
				<departure id="19" departureTime="16:15:40" vehicleRefId="para_0_3-13_9-0"/>
				<departure id="2" departureTime="08:25:20" vehicleRefId="para_0_3-13_9-0"/>
				<departure id="20" departureTime="16:43:20" vehicleRefId="para_0_3-13_9-0"/>
				<departure id="21" departureTime="17:11:00" vehicleRefId="para_0_3-13_9-0"/>
				<departure id="22" departureTime="17:38:40" vehicleRefId="para_0_3-13_9-0"/>
				<departure id="23" departureTime="18:06:20" vehicleRefId="para_0_3-13_9-0"/>
				<departure id="3" departureTime="08:53:00" vehicleRefId="para_0_3-13_9-0"/>
				<departure id="4" departureTime="09:20:40" vehicleRefId="para_0_3-13_9-0"/>
				<departure id="5" departureTime="09:48:20" vehicleRefId="para_0_3-13_9-0"/>
				<departure id="6" departureTime="10:16:00" vehicleRefId="para_0_3-13_9-0"/>
				<departure id="7" departureTime="10:43:40" vehicleRefId="para_0_3-13_9-0"/>
				<departure id="8" departureTime="11:11:20" vehicleRefId="para_0_3-13_9-0"/>
				<departure id="9" departureTime="11:39:00" vehicleRefId="para_0_3-13_9-0"/>
			</departures>
		</transitRoute>
	</transitLine>
	<transitLine id="para_0_4">
		<transitRoute id="para_0_4-0_0">
			<transportMode>pt</transportMode>
			<routeProfile>
				<stop refId="para_3444" arrivalOffset="00:00:00" departureOffset="00:00:00" awaitDeparture="false"/>
				<stop refId="para_4434" arrivalOffset="00:03:21" departureOffset="00:03:21" awaitDeparture="false"/>
				<stop refId="para_3433" arrivalOffset="00:06:51" departureOffset="00:06:51" awaitDeparture="false"/>
				<stop refId="para_3332" arrivalOffset="00:10:12" departureOffset="00:10:12" awaitDeparture="false"/>
				<stop refId="para_3231" arrivalOffset="00:13:33" departureOffset="00:13:33" awaitDeparture="false"/>
				<stop refId="para_3141" arrivalOffset="00:16:54" departureOffset="00:16:54" awaitDeparture="false"/>
				<stop refId="para_4131" arrivalOffset="00:20:29" departureOffset="00:20:29" awaitDeparture="false"/>
				<stop refId="para_3132" arrivalOffset="00:23:51" departureOffset="00:23:51" awaitDeparture="false"/>
				<stop refId="para_3233" arrivalOffset="00:27:15" departureOffset="00:27:15" awaitDeparture="false"/>
				<stop refId="para_3334" arrivalOffset="00:30:36" departureOffset="00:30:36" awaitDeparture="false"/>
				<stop refId="para_3444" arrivalOffset="00:33:57" departureOffset="00:33:57" awaitDeparture="false"/>
			</routeProfile>
			<route>
				<link refId="3444"/>
				<link refId="4434"/>
				<link refId="3433"/>
				<link refId="3332"/>
				<link refId="3231"/>
				<link refId="3141"/>
				<link refId="4131"/>
				<link refId="3132"/>
				<link refId="3233"/>
				<link refId="3334"/>
				<link refId="3444"/>
			</route>
			<departures>
				<departure id="0" departureTime="06:15:00" vehicleRefId="para_0_4-0_0-0"/>
				<departure id="1" departureTime="06:49:57" vehicleRefId="para_0_4-0_0-0"/>
				<departure id="10" departureTime="12:04:30" vehicleRefId="para_0_4-0_0-0"/>
				<departure id="11" departureTime="12:39:27" vehicleRefId="para_0_4-0_0-0"/>
				<departure id="12" departureTime="13:14:24" vehicleRefId="para_0_4-0_0-0"/>
				<departure id="13" departureTime="13:49:21" vehicleRefId="para_0_4-0_0-0"/>
				<departure id="14" departureTime="14:24:18" vehicleRefId="para_0_4-0_0-0"/>
				<departure id="15" departureTime="14:59:15" vehicleRefId="para_0_4-0_0-0"/>
				<departure id="16" departureTime="15:34:12" vehicleRefId="para_0_4-0_0-0"/>
				<departure id="17" departureTime="16:09:09" vehicleRefId="para_0_4-0_0-0"/>
				<departure id="18" departureTime="16:44:06" vehicleRefId="para_0_4-0_0-0"/>
				<departure id="19" departureTime="17:19:04" vehicleRefId="para_0_4-0_0-0"/>
				<departure id="2" departureTime="07:24:54" vehicleRefId="para_0_4-0_0-0"/>
				<departure id="20" departureTime="17:54:01" vehicleRefId="para_0_4-0_0-0"/>
				<departure id="21" departureTime="18:28:58" vehicleRefId="para_0_4-0_0-0"/>
				<departure id="22" departureTime="19:03:55" vehicleRefId="para_0_4-0_0-0"/>
				<departure id="23" departureTime="19:38:52" vehicleRefId="para_0_4-0_0-0"/>
				<departure id="24" departureTime="20:13:49" vehicleRefId="para_0_4-0_0-0"/>
				<departure id="25" departureTime="20:48:46" vehicleRefId="para_0_4-0_0-0"/>
				<departure id="26" departureTime="21:23:43" vehicleRefId="para_0_4-0_0-0"/>
				<departure id="27" departureTime="21:58:40" vehicleRefId="para_0_4-0_0-0"/>
				<departure id="3" departureTime="07:59:51" vehicleRefId="para_0_4-0_0-0"/>
				<departure id="4" departureTime="08:34:48" vehicleRefId="para_0_4-0_0-0"/>
				<departure id="5" departureTime="09:09:45" vehicleRefId="para_0_4-0_0-0"/>
				<departure id="6" departureTime="09:44:42" vehicleRefId="para_0_4-0_0-0"/>
				<departure id="7" departureTime="10:19:39" vehicleRefId="para_0_4-0_0-0"/>
				<departure id="8" departureTime="10:54:36" vehicleRefId="para_0_4-0_0-0"/>
				<departure id="9" departureTime="11:29:33" vehicleRefId="para_0_4-0_0-0"/>
			</departures>
		</transitRoute>
		<transitRoute id="para_0_4-2_1">
			<transportMode>pt</transportMode>
			<routeProfile>
				<stop refId="para_4434" arrivalOffset="00:00:00" departureOffset="00:00:00" awaitDeparture="false"/>
				<stop refId="para_3433" arrivalOffset="00:03:29" departureOffset="00:03:29" awaitDeparture="false"/>
				<stop refId="para_3332" arrivalOffset="00:06:50" departureOffset="00:06:50" awaitDeparture="false"/>
				<stop refId="para_3231" arrivalOffset="00:10:11" departureOffset="00:10:11" awaitDeparture="false"/>
				<stop refId="para_3141" arrivalOffset="00:13:33" departureOffset="00:13:33" awaitDeparture="false"/>
				<stop refId="para_4142" arrivalOffset="00:17:06" departureOffset="00:17:06" awaitDeparture="false"/>
				<stop refId="para_4243" arrivalOffset="00:20:29" departureOffset="00:20:29" awaitDeparture="false"/>
				<stop refId="para_4344" arrivalOffset="00:23:50" departureOffset="00:23:50" awaitDeparture="false"/>
				<stop refId="para_4434" arrivalOffset="00:27:20" departureOffset="00:27:20" awaitDeparture="false"/>
			</routeProfile>
			<route>
				<link refId="4434"/>
				<link refId="3433"/>
				<link refId="3332"/>
				<link refId="3231"/>
				<link refId="3141"/>
				<link refId="4142"/>
				<link refId="4243"/>
				<link refId="4344"/>
				<link refId="4434"/>
			</route>
			<departures>
				<departure id="0" departureTime="06:30:00" vehicleRefId="para_0_4-2_1-0"/>
				<departure id="1" departureTime="06:58:20" vehicleRefId="para_0_4-2_1-0"/>
				<departure id="10" departureTime="11:13:28" vehicleRefId="para_0_4-2_1-0"/>
				<departure id="100" departureTime="19:48:42" vehicleRefId="para_0_4-2_1-2"/>
				<departure id="101" departureTime="20:17:03" vehicleRefId="para_0_4-2_1-2"/>
				<departure id="102" departureTime="20:45:23" vehicleRefId="para_0_4-2_1-2"/>
				<departure id="103" departureTime="21:13:44" vehicleRefId="para_0_4-2_1-2"/>
				<departure id="104" departureTime="21:42:05" vehicleRefId="para_0_4-2_1-2"/>
				<departure id="105" departureTime="22:10:26" vehicleRefId="para_0_4-2_1-2"/>
				<departure id="106" departureTime="22:38:47" vehicleRefId="para_0_4-2_1-2"/>
				<departure id="107" departureTime="23:07:08" vehicleRefId="para_0_4-2_1-2"/>
				<departure id="108" departureTime="06:37:27" vehicleRefId="para_0_4-2_1-3"/>
				<departure id="109" departureTime="07:05:47" vehicleRefId="para_0_4-2_1-3"/>
				<departure id="11" departureTime="11:41:49" vehicleRefId="para_0_4-2_1-0"/>
				<departure id="110" departureTime="07:34:08" vehicleRefId="para_0_4-2_1-3"/>
				<departure id="111" departureTime="08:02:29" vehicleRefId="para_0_4-2_1-3"/>