<?xml version="1.0" encoding="UTF-8"?>
<!DOCTYPE network SYSTEM "http://www.matsim.org/files/dtd/network_v2.dtd">
<network>

	<attributes>
		<attribute name="coordinateReferenceSystem" class="java.lang.String">Atlantis</attribute>
	</attributes>
	<!-- ====================================================================== -->

	<nodes>
		<node id="-137709" x="926722.5261521627" y="5954344.1845929185">
		</node>
		<node id="-137711" x="927735.3167769414" y="5955175.437275518">
		</node>
		<node id="-137712" x="927993.2917474037" y="5955251.874303807">
		</node>
		<node id="-137713" x="928150.943118242" y="5955380.861789037">
		</node>
		<node id="-137714" x="928284.7079177409" y="5955552.84510268">
		</node>
		<node id="-137715" x="928423.2500315078" y="5955691.387216444">
		</node>
		<node id="-137716" x="928547.4602024711" y="5955858.593215819">
		</node>
		<node id="-137717" x="928638.2291735598" y="5955949.362186904">
		</node>
		<node id="-137718" x="928776.7712873267" y="5956064.017729334">
		</node>
		<node id="-137719" x="928891.4268297544" y="5956169.118643228">
		</node>
		<node id="-137720" x="929221.0615142343" y="5956479.6440706365">
		</node>
		<node id="-137721" x="929364.3809422691" y="5956608.6315558655">
		</node>
		<node id="-137722" x="929536.3642559107" y="5956751.950983898">
		</node>
		<node id="-137723" x="929708.3475695524" y="5956890.493097667">
		</node>
		<node id="-137724" x="929875.5535689263" y="5957029.035211433">
		</node>
		<node id="-137725" x="930047.5368825678" y="5957162.8000109345">
		</node>
		<node id="-137726" x="930281.6252816913" y="5957373.00183872">
		</node>
		<node id="-137727" x="930487.0497952076" y="5957554.539780896">
		</node>
		<node id="-137728" x="930649.4737029993" y="5957693.086671976">
		</node>
		<node id="-137729" x="930840.5662737122" y="5957836.406100015">
		</node>
		<node id="-137730" x="932837.4836376626" y="5959527.575350824">
		</node>
		<node id="-137731" x="929025.1940179106" y="5956200.168797312">
		</node>
		<node id="-137732" x="929237.7845028288" y="5956412.759282229">
		</node>
		<node id="-137733" x="929118.3516461333" y="5956224.055368649">
		</node>
		<node id="-137734" x="929256.8937599001" y="5956362.597482416">
		</node>
		<node id="-137735" x="925900.8233207826" y="5956212.119248955">
		</node>
		<node id="-137736" x="927152.4796589524" y="5956259.892391633">
		</node>
		<node id="-137737" x="927255.1990816821" y="5956173.893568841">
		</node>
		<node id="-137738" x="927355.5226813063" y="5956104.622511956">
		</node>
		<node id="-137739" x="927465.4009094662" y="5956056.849369278">
		</node>
		<node id="-137740" x="927613.4976517688" y="5956030.574140805">
		</node>
		<node id="-137741" x="927766.3717083393" y="5956044.906083606">
		</node>
		<node id="-137742" x="927909.691136374" y="5956061.626683546">
		</node>
		<node id="-137743" x="928064.953850078" y="5956097.456540554">
		</node>
		<node id="-137744" x="928198.7186495772" y="5956147.618340367">
		</node>
		<node id="-137745" x="928303.8195634694" y="5956157.172968901">
		</node>
		<node id="-137746" x="928420.8637630312" y="5956126.120426161">
		</node>
		<node id="-137747" x="928509.2440769859" y="5956102.233854821">
		</node>
		<node id="-137748" x="928650.1748478864" y="5956090.290569154">
		</node>
		<node id="-137749" x="928779.1623331179" y="5956133.286397563">
		</node>
		<node id="-137750" x="929407.3791593366" y="5956505.916910452">
		</node>
		<node id="-137751" x="929581.7511301121" y="5956527.414824657">
		</node>
		<node id="-137752" x="929751.3457866198" y="5956532.192138925">
		</node>
		<node id="-137753" x="929901.8311860564" y="5956501.139596184">
		</node>
		<node id="-137754" x="930095.3052479317" y="5956374.54793406">
		</node>
		<node id="-137755" x="930181.2969047524" y="5956202.564620416">
		</node>
		<node id="-137756" x="930209.9607903595" y="5956059.245192385">
		</node>
		<node id="-137757" x="930214.7452705989" y="5955963.691741055">
		</node>
		<node id="-137758" x="930236.243184804" y="5955865.756798563">
		</node>
		<node id="-137759" x="930293.5709560177" y="5955796.485741678">
		</node>
		<node id="-137760" x="930403.4491841779" y="5955736.769313333">
		</node>
		<node id="-137761" x="930522.8820408734" y="5955712.882741996">
		</node>
		<node id="-137762" x="930651.8695261047" y="5955710.494084862">
		</node>
		<node id="-137763" x="930845.3507539515" y="5955741.5466276">
		</node>
		<node id="-137764" x="930976.7268963166" y="5955731.991999067">
		</node>
		<node id="-137765" x="931103.3233357568" y="5955691.387216444">
		</node>
		<node id="-137766" x="931991.9061782291" y="5955567.174656826">
		</node>
	</nodes>

	<!-- ====================================================================== -->

	<links capperiod="01:00:00" effectivecellsize="7.5" effectivelanewidth="3.75">
		<link id="-103224_0" from="-137709" to="-137711" length="1310.238860654078" freespeed="13.8889" capacity="3600.0" permlanes="2.0" oneway="1" modes="rail">
		</link>
		<link id="-103224_1" from="-137711" to="-137712" length="269.06078249837213" freespeed="13.8889" capacity="3600.0" permlanes="2.0" oneway="1" modes="rail">
			<attributes>
				<attribute name="railsimTrainCapacity" class="java.lang.Integer">1</attribute>
			</attributes>
		</link>
		<link id="-103224_10" from="-137720" to="-137721" length="192.81657034067553" freespeed="13.8889" capacity="3600.0" permlanes="2.0" oneway="1" modes="rail">
			<attributes>
				<attribute name="railsimTrainCapacity" class="java.lang.Integer">1</attribute>
			</attributes>
		</link>
		<link id="-103224_11" from="-137721" to="-137722" length="223.8721032702594" freespeed="13.8889" capacity="3600.0" permlanes="2.0" oneway="1" modes="rail">
			<attributes>
				<attribute name="railsimTrainCapacity" class="java.lang.Integer">1</attribute>
			</attributes>
		</link>
		<link id="-103224_12" from="-137722" to="-137723" length="220.844238002037" freespeed="13.8889" capacity="3600.0" permlanes="2.0" oneway="1" modes="rail">
			<attributes>
				<attribute name="railsimTrainCapacity" class="java.lang.Integer">1</attribute>
			</attributes>
		</link>
		<link id="-103224_13" from="-137723" to="-137724" length="217.1445682337104" freespeed="13.8889" capacity="3600.0" permlanes="2.0" oneway="1" modes="rail">
			<attributes>
				<attribute name="railsimTrainCapacity" class="java.lang.Integer">1</attribute>
			</attributes>
		</link>
		<link id="-103224_14" from="-137724" to="-137725" length="217.87905304745763" freespeed="13.8889" capacity="3600.0" permlanes="2.0" oneway="1" modes="rail">
			<attributes>
				<attribute name="railsimTrainCapacity" class="java.lang.Integer">1</attribute>
			</attributes>
		</link>
		<link id="-103224_15" from="-137725" to="-137726" length="314.6143464763763" freespeed="13.8889" capacity="3600.0" permlanes="2.0" oneway="1" modes="rail">
			<attributes>
				<attribute name="railsimTrainCapacity" class="java.lang.Integer">1</attribute>
			</attributes>
		</link>
		<link id="-103224_16" from="-137726" to="-137727" length="274.14458813333306" freespeed="13.8889" capacity="3600.0" permlanes="2.0" oneway="1" modes="rail">
			<attributes>
				<attribute name="railsimTrainCapacity" class="java.lang.Integer">1</attribute>
			</attributes>
		</link>
		<link id="-103224_17" from="-137727" to="-137728" length="213.48715851387766" freespeed="13.8889" capacity="3600.0" permlanes="2.0" oneway="1" modes="rail">
			<attributes>
				<attribute name="railsimTrainCapacity" class="java.lang.Integer">1</attribute>
			</attributes>
		</link>
		<link id="-103224_18" from="-137728" to="-137729" length="238.86571339359506" freespeed="13.8889" capacity="3600.0" permlanes="2.0" oneway="1" modes="rail">
			<attributes>
				<attribute name="railsimTrainCapacity" class="java.lang.Integer">1</attribute>
			</attributes>
		</link>
		<link id="-103224_19" from="-137729" to="-137730" length="2616.8172258159966" freespeed="13.8889" capacity="3600.0" permlanes="2.0" oneway="1" modes="rail">
			<attributes>
				<attribute name="railsimTrainCapacity" class="java.lang.Integer">1</attribute>
			</attributes>
		</link>
		<link id="-103224_2" from="-137712" to="-137713" length="203.69517930756678" freespeed="13.8889" capacity="3600.0" permlanes="2.0" oneway="1" modes="rail">
			<attributes>
				<attribute name="railsimTrainCapacity" class="java.lang.Integer">1</attribute>
			</attributes>
		</link>
		<link id="-103224_3" from="-137713" to="-137714" length="217.87905304721258" freespeed="13.8889" capacity="3600.0" permlanes="2.0" oneway="1" modes="rail">
			<attributes>
				<attribute name="railsimTrainCapacity" class="java.lang.Integer">1</attribute>
			</attributes>
		</link>
		<link id="-103224_4" from="-137714" to="-137715" length="195.9281362470775" freespeed="13.8889" capacity="3600.0" permlanes="2.0" oneway="1" modes="rail">
			<attributes>
				<attribute name="railsimTrainCapacity" class="java.lang.Integer">1</attribute>
			</attributes>
		</link>
		<link id="-103224_5" from="-137715" to="-137716" length="208.29309349528464" freespeed="13.8889" capacity="3600.0" permlanes="2.0" oneway="1" modes="rail">
			<attributes>
				<attribute name="railsimTrainCapacity" class="java.lang.Integer">1</attribute>
			</attributes>
		</link>
		<link id="-103224_6" from="-137716" to="-137717" length="128.3667099533979" freespeed="13.8889" capacity="3600.0" permlanes="2.0" oneway="1" modes="rail">
			<attributes>
				<attribute name="railsimTrainCapacity" class="java.lang.Integer">1</attribute>
			</attributes>
		</link>
		<link id="-103224_7" from="-137717" to="-137718" length="179.8327297707759" freespeed="13.8889" capacity="3600.0" permlanes="2.0" oneway="1" modes="rail">
			<attributes>
				<attribute name="railsimTrainCapacity" class="java.lang.Integer">1</attribute>
			</attributes>
		</link>
		<link id="-103224_8" from="-137718" to="-137719" length="155.53808379562346" freespeed="13.8889" capacity="3600.0" permlanes="2.0" oneway="1" modes="rail">
			<attributes>
				<attribute name="railsimResourceId" class="java.lang.String">r1</attribute>
				<attribute name="railsimTrainCapacity" class="java.lang.Integer">1</attribute>
			</attributes>
		</link>
		<link id="-103224_9" from="-137719" to="-137720" length="452.8631871541479" freespeed="13.8889" capacity="3600.0" permlanes="2.0" oneway="1" modes="rail">
			<attributes>
				<attribute name="railsimTrainCapacity" class="java.lang.Integer">1</attribute>
			</attributes>
		</link>
		<link id="-103245_0" from="-137719" to="-137731" length="137.32360574894818" freespeed="13.8889" capacity="3600.0" permlanes="2.0" oneway="1" modes="rail">
			<attributes>
				<attribute name="railsimTrainCapacity" class="java.lang.Integer">1</attribute>
			</attributes>
		</link>
		<link id="-103245_1" from="-137731" to="-137732" length="300.64834700140835" freespeed="13.8889" capacity="3600.0" permlanes="2.0" oneway="1" modes="rail">
			<attributes>
				<attribute name="railsimTrainCapacity" class="java.lang.Integer">1</attribute>
			</attributes>
		</link>
		<link id="-103245_2" from="-137732" to="-137720" length="68.94369636093728" freespeed="13.8889" capacity="3600.0" permlanes="2.0" oneway="1" modes="rail">
			<attributes>
				<attribute name="railsimTrainCapacity" class="java.lang.Integer">1</attribute>
			</attributes>
		</link>
		<link id="-103245_3" from="-137720" to="-137750" length="188.1609071736745" freespeed="13.8889" capacity="3600.0" permlanes="2.0" oneway="1" modes="rail">
			<attributes>
				<attribute name="railsimTrainCapacity" class="java.lang.Integer">1</attribute>
			</attributes>
		</link>
		<link id="-103248_0" from="-137731" to="-137733" length="96.17126382811878" freespeed="13.8889" capacity="3600.0" permlanes="2.0" oneway="1" modes="rail">
			<attributes>
				<attribute name="railsimTrainCapacity" class="java.lang.Integer">1</attribute>
			</attributes>
		</link>
		<link id="-103248_1" from="-137733" to="-137734" length="195.92813624897084" freespeed="13.8889" capacity="3600.0" permlanes="2.0" oneway="1" modes="rail">
			<attributes>
				<attribute name="railsimTrainCapacity" class="java.lang.Integer">1</attribute>
			</attributes>
		</link>
		<link id="-103248_10" from="-137756" to="-137757" length="95.67315878715587" freespeed="13.8889" capacity="3600.0" permlanes="2.0" oneway="1" modes="rail">
			<attributes>
				<attribute name="railsimTrainCapacity" class="java.lang.Integer">1</attribute>
			</attributes>
		</link>
		<link id="-103248_11" from="-137757" to="-137758" length="100.2667107076701" freespeed="13.8889" capacity="3600.0" permlanes="2.0" oneway="1" modes="rail">
			<attributes>
				<attribute name="railsimTrainCapacity" class="java.lang.Integer">1</attribute>
			</attributes>
		</link>
		<link id="-103248_12" from="-137758" to="-137759" length="89.916364885841" freespeed="13.8889" capacity="3600.0" permlanes="2.0" oneway="1" modes="rail">
			<attributes>
				<attribute name="railsimTrainCapacity" class="java.lang.Integer">1</attribute>
			</attributes>
		</link>
		<link id="-103248_13" from="-137759" to="-137760" length="125.05709431262794" freespeed="13.8889" capacity="3600.0" permlanes="2.0" oneway="1" modes="rail">
			<attributes>
				<attribute name="railsimTrainCapacity" class="java.lang.Integer">1</attribute>
			</attributes>
		</link>
		<link id="-103248_14" from="-137760" to="-137761" length="121.79809337038832" freespeed="13.8889" capacity="3600.0" permlanes="2.0" oneway="1" modes="rail">
			<attributes>
				<attribute name="railsimTrainCapacity" class="java.lang.Integer">1</attribute>
			</attributes>
		</link>
		<link id="-103248_15" from="-137761" to="-137762" length="129.00960053106812" freespeed="13.8889" capacity="3600.0" permlanes="2.0" oneway="1" modes="rail">
			<attributes>
				<attribute name="railsimTrainCapacity" class="java.lang.Integer">1</attribute>
			</attributes>
		</link>
		<link id="-103248_16" from="-137762" to="-137763" length="195.95725538899384" freespeed="13.8889" capacity="3600.0" permlanes="2.0" oneway="1" modes="rail">
			<attributes>
				<attribute name="railsimTrainCapacity" class="java.lang.Integer">1</attribute>
			</attributes>
		</link>
		<link id="-103248_17" from="-137763" to="-137764" length="131.72312518742643" freespeed="13.8889" capacity="3600.0" permlanes="2.0" oneway="1" modes="rail">
			<attributes>
				<attribute name="railsimTrainCapacity" class="java.lang.Integer">1</attribute>
			</attributes>
		</link>
		<link id="-103248_18" from="-137764" to="-137765" length="132.94888811420992" freespeed="13.8889" capacity="3600.0" permlanes="2.0" oneway="1" modes="rail">
			<attributes>
				<attribute name="railsimTrainCapacity" class="java.lang.Integer">1</attribute>
			</attributes>
		</link>
		<link id="-103248_19" from="-137765" to="-137766" length="897.2225074657487" freespeed="13.8889" capacity="3600.0" permlanes="2.0" oneway="1" modes="rail">
			<attributes>
				<attribute name="railsimTrainCapacity" class="java.lang.Integer">1</attribute>
			</attributes>
		</link>
		<link id="-103248_2" from="-137734" to="-137732" length="53.678392918049944" freespeed="13.8889" capacity="3600.0" permlanes="2.0" oneway="1" modes="rail">
			<attributes>
				<attribute name="railsimTrainCapacity" class="java.lang.Integer">1</attribute>
			</attributes>
		</link>
		<link id="-103248_3" from="-137732" to="-137750" length="193.49597208252487" freespeed="13.8889" capacity="3600.0" permlanes="2.0" oneway="1" modes="rail">
			<attributes>
				<attribute name="railsimTrainCapacity" class="java.lang.Integer">1</attribute>
			</attributes>
		</link>
		<link id="-103248_4" from="-137750" to="-137751" length="175.69218681353894" freespeed="13.8889" capacity="3600.0" permlanes="2.0" oneway="1" modes="rail">
			<attributes>
				<attribute name="railsimTrainCapacity" class="java.lang.Integer">1</attribute>
			</attributes>
		</link>
		<link id="-103248_5" from="-137751" to="-137752" length="169.66192928169363" freespeed="13.8889" capacity="3600.0" permlanes="2.0" oneway="1" modes="rail">
			<attributes>
				<attribute name="railsimTrainCapacity" class="java.lang.Integer">1</attribute>
			</attributes>
		</link>
		<link id="-103248_6" from="-137752" to="-137753" length="153.6558357313076" freespeed="13.8889" capacity="3600.0" permlanes="2.0" oneway="1" modes="rail">
			<attributes>
				<attribute name="railsimTrainCapacity" class="java.lang.Integer">1</attribute>
			</attributes>
		</link>
		<link id="-103248_7" from="-137753" to="-137754" length="231.20912944306752" freespeed="13.8889" capacity="3600.0" permlanes="2.0" oneway="1" modes="rail">
			<attributes>
				<attribute name="railsimTrainCapacity" class="java.lang.Integer">1</attribute>
			</attributes>
		</link>
		<link id="-103248_8" from="-137754" to="-137755" length="192.28319015148958" freespeed="13.8889" capacity="3600.0" permlanes="2.0" oneway="1" modes="rail">
			<attributes>
				<attribute name="railsimTrainCapacity" class="java.lang.Integer">1</attribute>
			</attributes>
		</link>
		<link id="-103248_9" from="-137755" to="-137756" length="146.1577120410048" freespeed="13.8889" capacity="3600.0" permlanes="2.0" oneway="1" modes="rail">
			<attributes>
				<attribute name="railsimTrainCapacity" class="java.lang.Integer">1</attribute>
			</attributes>
		</link>
		<link id="-103251_0" from="-137735" to="-137736" length="1252.5677075679712" freespeed="13.8889" capacity="3600.0" permlanes="2.0" oneway="1" modes="rail">
		</link>
		<link id="-103251_1" from="-137736" to="-137737" length="133.96670230920907" freespeed="13.8889" capacity="3600.0" permlanes="2.0" oneway="1" modes="rail">
			<attributes>
				<attribute name="railsimTrainCapacity" class="java.lang.Integer">1</attribute>
			</attributes>
		</link>
		<link id="-103251_10" from="-137745" to="-137746" length="121.09337331851731" freespeed="13.8889" capacity="3600.0" permlanes="2.0" oneway="1" modes="rail">
			<attributes>
				<attribute name="railsimTrainCapacity" class="java.lang.Integer">1</attribute>
			</attributes>
		</link>
		<link id="-103251_11" from="-137746" to="-137747" length="91.55134179857049" freespeed="13.8889" capacity="3600.0" permlanes="2.0" oneway="1" modes="rail">
			<attributes>
				<attribute name="railsimTrainCapacity" class="java.lang.Integer">1</attribute>
			</attributes>
		</link>
		<link id="-103251_12" from="-137747" to="-137748" length="141.43593694376082" freespeed="13.8889" capacity="3600.0" permlanes="2.0" oneway="1" modes="rail">
			<attributes>
				<attribute name="railsimTrainCapacity" class="java.lang.Integer">1</attribute>
			</attributes>
		</link>
		<link id="-103251_13" from="-137748" to="-137749" length="135.96474766268085" freespeed="13.8889" capacity="3600.0" permlanes="2.0" oneway="1" modes="rail">
			<attributes>
				<attribute name="railsimTrainCapacity" class="java.lang.Integer">1</attribute>
			</attributes>
		</link>
		<link id="-103251_14" from="-137749" to="-137719" length="117.84424905107248" freespeed="13.8889" capacity="3600.0" permlanes="2.0" oneway="1" modes="rail">
			<attributes>
				<attribute name="railsimResourceId" class="java.lang.String">r1</attribute>
				<attribute name="railsimTrainCapacity" class="java.lang.Integer">1</attribute>
			</attributes>
		</link>
		<link id="-103251_2" from="-137737" to="-137738" length="121.91515067255072" freespeed="13.8889" capacity="3600.0" permlanes="2.0" oneway="1" modes="rail">
			<attributes>
				<attribute name="railsimTrainCapacity" class="java.lang.Integer">1</attribute>
			</attributes>
		</link>
		<link id="-103251_3" from="-137738" to="-137739" length="119.81443228950297" freespeed="13.8889" capacity="3600.0" permlanes="2.0" oneway="1" modes="rail">
			<attributes>
				<attribute name="railsimTrainCapacity" class="java.lang.Integer">1</attribute>
			</attributes>
		</link>
		<link id="-103251_4" from="-137739" to="-137740" length="150.4095499361101" freespeed="13.8889" capacity="3600.0" permlanes="2.0" oneway="1" modes="rail">
			<attributes>
				<attribute name="railsimTrainCapacity" class="java.lang.Integer">1</attribute>
			</attributes>
		</link>
		<link id="-103251_5" from="-137740" to="-137741" length="153.54439669610616" freespeed="13.8889" capacity="3600.0" permlanes="2.0" oneway="1" modes="rail">
			<attributes>
				<attribute name="railsimTrainCapacity" class="java.lang.Integer">1</attribute>
			</attributes>
		</link>
		<link id="-103251_6" from="-137741" to="-137742" length="144.2914998000616" freespeed="13.8889" capacity="3600.0" permlanes="2.0" oneway="1" modes="rail">
			<attributes>
				<attribute name="railsimTrainCapacity" class="java.lang.Integer">1</attribute>
			</attributes>
		</link>
		<link id="-103251_7" from="-137742" to="-137743" length="159.3433052246728" freespeed="13.8889" capacity="3600.0" permlanes="2.0" oneway="1" modes="rail">
			<attributes>
				<attribute name="railsimTrainCapacity" class="java.lang.Integer">1</attribute>
			</attributes>
		</link>
		<link id="-103251_8" from="-137743" to="-137744" length="142.8608684895872" freespeed="13.8889" capacity="3600.0" permlanes="2.0" oneway="1" modes="rail">
			<attributes>
				<attribute name="railsimTrainCapacity" class="java.lang.Integer">1</attribute>
			</attributes>
		</link>
		<link id="-103251_9" from="-137744" to="-137745" length="105.53432156116263" freespeed="13.8889" capacity="3600.0" permlanes="2.0" oneway="1" modes="rail">
			<attributes>
				<attribute name="railsimTrainCapacity" class="java.lang.Integer">1</attribute>
			</attributes>
		</link>
	</links>

	<!-- ====================================================================== -->

</network>
