<?xml version="1.0" encoding="utf-8"?>
<!DOCTYPE network SYSTEM "http://matsim.org/files/dtd/network_v1.dtd">
<network>

<nodes>
	<node id="0" x="0" y="0" />
	<node id="1" x="500" y="0" />
	<node id="2" x="1000" y="0" />
	<node id="3" x="1500" y="0" />
	<node id="4" x="2000" y="0" />
	<node id="5" x="2500" y="0" />
	<node id="6" x="3000" y="0" />
</nodes>
<links capperiod="1:00:00">
	<link id="1" from="0" to="1" length="500.00" capacity="7200" freespeed="8.4" modes="car, bus" permlanes="1" />
	<link id="2" from="1" to="2" length="500.00" capacity="7200" freespeed="8.4" modes="car, bus" permlanes="1" />
	<link id="3" from="2" to="3" length="500.00" capacity="7200" freespeed="8.4" modes="car, bus" permlanes="1" />
	<link id="4" from="3" to="4" length="500.00" capacity="7200" freespeed="8.4" modes="car, bus" permlanes="1" />
	<link id="5" from="4" to="5" length="500.00" capacity="7200" freespeed="8.4" modes="car, bus" permlanes="1" />
	<link id="6" from="5" to="6" length="500.00" capacity="7200" freespeed="8.4" modes="car, bus" permlanes="1" />
</links>
</network>