<?xml version="1.0" encoding="UTF-8"?>
<networkChangeEvents xmlns="http://www.matsim.org/files/dtd" xmlns:xsi="http://www.w3.org/2001/XMLSchema-instance" xsi:schemaLocation="http://www.matsim.org/files/dtd http://www.matsim.org/files/dtd/networkChangeEvents.xsd">

  <networkChangeEvent startTime="07:00:00">
    <link refId="14"/>
    <flowCapacity type="scaleFactor" value="0.2"/>
  </networkChangeEvent>

  <networkChangeEvent startTime="08:15:00">
    <link refId="14"/>
    <flowCapacity type="scaleFactor" value="5"/>
  </networkChangeEvent>


</networkChangeEvents>
