<?xml version="1.0" encoding="UTF-8"?>
<!DOCTYPE transitSchedule SYSTEM "http://www.matsim.org/files/dtd/transitSchedule_v2.dtd">

<transitSchedule>

	<transitStops>
		<stopFacility id="A0" x="0" y="1000" linkRefId="A0" isBlocking="false">
		</stopFacility>
		<stopFacility id="B0" x="0" y="-1500" linkRefId="B0" isBlocking="false">
		</stopFacility>
		<stopFacility id="C0" x="-1000" y="0" linkRefId="C0" isBlocking="false">
		</stopFacility>
		<stopFacility id="D0" x="1500" y="0" linkRefId="D0" isBlocking="false">
		</stopFacility>
	</transitStops>
	<transitLine id="line1">
		<transitRoute id="line1_route1">
			<transportMode>rail</transportMode>
			<routeProfile>
				<stop refId="A0" departureOffset="00:00:00" awaitDeparture="true"/>
				<stop refId="B0" arrivalOffset="01:00:00" awaitDeparture="true"/>
			</routeProfile>
			<route>
				<link refId="A0"/>
				<link refId="A"/>
				<link refId="B"/>
				<link refId="B0"/>
			</route>
			<departures>
				<departure id="0" departureTime="08:00:00" vehicleRefId="train1"/>
			</departures>
		</transitRoute>
	</transitLine>
	<transitLine id="line2">
		<transitRoute id="line2_route1">
			<transportMode>rail</transportMode>
			<routeProfile>
				<stop refId="C0" departureOffset="00:00:00" awaitDeparture="true"/>
				<stop refId="D0" arrivalOffset="01:00:00" awaitDeparture="true"/>
			</routeProfile>
			<route>
				<link refId="C0"/>
				<link refId="C"/>
				<link refId="D"/>
				<link refId="D0"/>
			</route>
			<departures>
				<departure id="0" departureTime="08:00:01" vehicleRefId="train2"/>
			</departures>
		</transitRoute>
	</transitLine>
</transitSchedule>