<?xml version="1.0" encoding="UTF-8"?>
<!DOCTYPE network SYSTEM "http://www.matsim.org/files/dtd/network_v1.dtd">
<network name="avtaxi">
    <nodes>
        <node id="A" x="0.0" y="0.0" />
        <node id="B" x="0.0" y="10000.0" />
        <node id="C" x="0.0" y="20000.0" />
        <node id="D" x="0.0" y="30000.0" />
    </nodes>
    <links effectivecellsize="7.5" capperiod="01:00:00" effectivelanewidth="3.75">
        <link id="AB" from="A" to="B" length="10000.0" modes="car" capacity="1500.0" permlanes="1.0" oneway="1" freespeed="22.0" />
        <link id="BA" from="B" to="A" length="10000.0" modes="car" capacity="1500.0" permlanes="1.0" oneway="1" freespeed="22.0" />
        <link id="BC" from="B" to="C" length="10000.0" modes="car" capacity="1500.0" permlanes="1.0" oneway="1" freespeed="22.0" />
        <link id="CB" from="C" to="B" length="10000.0" modes="car" capacity="1500.0" permlanes="1.0" oneway="1" freespeed="22.0" />
        <link id="CD" from="C" to="D" length="10000.0" modes="car" capacity="1500.0" permlanes="1.0" oneway="1" freespeed="22.0" />
        <link id="DC" from="D" to="C" length="10000.0" modes="car" capacity="1500.0" permlanes="1.0" oneway="1" freespeed="22.0" />
    </links>
</network>
