<?xml version="1.0" encoding="utf-8"?>
<!DOCTYPE population SYSTEM "http://www.matsim.org/files/dtd/population_v5.dtd">
<population>
    <person id="PersonA">
        <plan selected="yes">
            <act type="home" link="AB" end_time="08:00:00" />
            <leg mode="taxi" />
            <act type="work" link="CD" end_time="16:30:00" />
            <leg mode="taxi" />
            <act type="home" link="AB" />
        </plan>
    </person>
    <person id="PersonB">
        <plan selected="yes">
            <act type="home" link="AB" end_time="08:00:05" />
            <leg mode="taxi" />
            <act type="work" link="CD" end_time="16:30:05" />
            <leg mode="taxi" />
            <act type="home" link="AB" />
        </plan>
    </person>
</population>
