<?xml version="1.0" encoding="UTF-8"?>
<!DOCTYPE network SYSTEM "http://www.matsim.org/files/dtd/network_v2.dtd">
<network name="test network">

	<attributes>
		<attribute name="coordinateReferenceSystem" class="java.lang.String">Atlantis</attribute>
	</attributes>


	<!--

	1  ==>  2 ==============> 3 =====================================> 4 ==============> 5 ==> 6
							  \\
	7  ==>  8 =================> 9 ==> 10 ===========================> 11 =============> 12 ==> 13
										 \\
	14 ==> 15 ==============> 16 =======> 17 => 17a ==> 17b ==> 17c => 18 =============> 19 ==> 20

	 -->

	<!-- ====================================================================== -->

	<nodes>
		<node id="1" x="0.0" y="0.0">
		</node>
		<node id="10" x="10200.0" y="-300.0">
		</node>
		<node id="11" x="20000.0" y="-300.0">
		</node>
		<node id="12" x="30000.0" y="-300.0">
		</node>
		<node id="13" x="30500.0" y="-100.0">
		</node>
		<node id="14" x="0.0" y="-600.0">
		</node>
		<node id="15" x="600.0" y="-600.0">
		</node>
		<node id="16" x="10000.0" y="-600.0">
		</node>
		<node id="17" x="10300.0" y="-600.0">
		</node>
		<node id="17a" x="10500.0" y="-600.0">
		</node>
		<node id="17b" x="11000.0" y="-600.0">
		</node>
		<node id="17c" x="11500.0" y="-600.0">
		</node>
		<node id="18" x="20000.0" y="-600.0">
		</node>
		<node id="19" x="30000.0" y="-600.0">
		</node>
		<node id="2" x="600.0" y="0.0">
		</node>
		<node id="20" x="30500.0" y="-600.0">
		</node>
		<node id="3" x="10000.0" y="0.0">
		</node>
		<node id="4" x="20000.0" y="0.0">
		</node>
		<node id="5" x="30000.0" y="0.0">
		</node>
		<node id="6" x="30500.0" y="0.0">
		</node>
		<node id="7" x="0.0" y="-300.0">
		</node>
		<node id="8" x="600.0" y="-300.0">
		</node>
		<node id="9" x="10100.0" y="-300.0">
		</node>
	</nodes>

	<!-- ====================================================================== -->

	<links capperiod="01:00:00" effectivecellsize="7.5" effectivelanewidth="3.75">
		<link id="1-2" from="1" to="2" length="600.0" freespeed="44.44444444444444" capacity="3600.0" permlanes="1.0" oneway="1" modes="rail">
			<attributes>
				<attribute name="railsimTrainCapacity" class="java.lang.Integer">5</attribute>
			</attributes>
		</link>
		<link id="10-11" from="10" to="11" length="9800.0" freespeed="44.44444444444444" capacity="3600.0" permlanes="1.0" oneway="1" modes="rail">
			<attributes>
				<attribute name="railsimTrainCapacity" class="java.lang.Integer">1</attribute>
			</attributes>
		</link>
		<link id="10-17" from="10" to="17" length="316.22776601683796" freespeed="2.7778" capacity="3600.0" permlanes="1.0" oneway="1" modes="rail">
			<attributes>
				<attribute name="railsimTrainCapacity" class="java.lang.Integer">1</attribute>
			</attributes>
		</link>
		<link id="11-12" from="11" to="12" length="10000.0" freespeed="44.44444444444444" capacity="3600.0" permlanes="1.0" oneway="1" modes="rail">
			<attributes>
				<attribute name="railsimTrainCapacity" class="java.lang.Integer">1</attribute>
			</attributes>
		</link>
		<link id="12-13" from="12" to="13" length="538.5164807134504" freespeed="44.44444444444444" capacity="3600.0" permlanes="1.0" oneway="1" modes="rail">
			<attributes>
				<attribute name="railsimTrainCapacity" class="java.lang.Integer">5</attribute>
			</attributes>
		</link>
		<link id="14-15" from="14" to="15" length="600.0" freespeed="44.44444444444444" capacity="3600.0" permlanes="1.0" oneway="1" modes="rail">
			<attributes>
				<attribute name="railsimTrainCapacity" class="java.lang.Integer">5</attribute>
			</attributes>
		</link>
		<link id="15-16" from="15" to="16" length="9400.0" freespeed="44.44444444444444" capacity="3600.0" permlanes="1.0" oneway="1" modes="rail">
			<attributes>
				<attribute name="railsimTrainCapacity" class="java.lang.Integer">1</attribute>
			</attributes>
		</link>
		<link id="16-17" from="16" to="17" length="300.0" freespeed="44.44444444444444" capacity="3600.0" permlanes="1.0" oneway="1" modes="rail">
			<attributes>
				<attribute name="railsimTrainCapacity" class="java.lang.Integer">1</attribute>
			</attributes>
		</link>
		<link id="17-17a" from="17" to="17a" length="200.0" freespeed="2.7778" capacity="3600.0" permlanes="1.0" oneway="1" modes="rail">
			<attributes>
				<attribute name="railsimTrainCapacity" class="java.lang.Integer">1</attribute>
			</attributes>
		</link>
		<link id="17a-17b" from="17a" to="17b" length="500.0" freespeed="2.7778" capacity="3600.0" permlanes="1.0" oneway="1" modes="rail">
			<attributes>
				<attribute name="railsimTrainCapacity" class="java.lang.Integer">1</attribute>
			</attributes>
		</link>
		<link id="17b-17c" from="17b" to="17c" length="500.0" freespeed="2.7778" capacity="3600.0" permlanes="1.0" oneway="1" modes="rail">
			<attributes>
				<attribute name="railsimTrainCapacity" class="java.lang.Integer">1</attribute>
			</attributes>
		</link>
		<link id="17c-18" from="17c" to="18" length="8500.0" freespeed="44.44444444444444" capacity="3600.0" permlanes="1.0" oneway="1" modes="rail">
			<attributes>
				<attribute name="railsimTrainCapacity" class="java.lang.Integer">1</attribute>
			</attributes>
		</link>
		<link id="18-19" from="18" to="19" length="10000.0" freespeed="44.44444444444444" capacity="3600.0" permlanes="1.0" oneway="1" modes="rail">
			<attributes>
				<attribute name="railsimTrainCapacity" class="java.lang.Integer">1</attribute>
			</attributes>
		</link>
		<link id="19-20" from="19" to="20" length="500.0" freespeed="44.44444444444444" capacity="3600.0" permlanes="1.0" oneway="1" modes="rail">
			<attributes>
				<attribute name="railsimTrainCapacity" class="java.lang.Integer">5</attribute>
			</attributes>
		</link>
		<link id="2-3" from="2" to="3" length="9400.0" freespeed="44.44444444444444" capacity="3600.0" permlanes="1.0" oneway="1" modes="rail">
			<attributes>
				<attribute name="railsimTrainCapacity" class="java.lang.Integer">1</attribute>
			</attributes>
		</link>
		<link id="3-4" from="3" to="4" length="10000.0" freespeed="44.44444444444444" capacity="3600.0" permlanes="1.0" oneway="1" modes="rail">
			<attributes>
				<attribute name="railsimTrainCapacity" class="java.lang.Integer">1</attribute>
			</attributes>
		</link>
		<link id="3-9" from="3" to="9" length="316.22776601683796" freespeed="2.7778" capacity="3600.0" permlanes="1.0" oneway="1" modes="rail">
			<attributes>
				<attribute name="railsimTrainCapacity" class="java.lang.Integer">1</attribute>
			</attributes>
		</link>
		<link id="4-5" from="4" to="5" length="10000.0" freespeed="44.44444444444444" capacity="3600.0" permlanes="1.0" oneway="1" modes="rail">
			<attributes>
				<attribute name="railsimTrainCapacity" class="java.lang.Integer">1</attribute>
			</attributes>
		</link>
		<link id="5-6" from="5" to="6" length="500.0" freespeed="44.44444444444444" capacity="3600.0" permlanes="1.0" oneway="1" modes="rail">
			<attributes>
				<attribute name="railsimTrainCapacity" class="java.lang.Integer">5</attribute>
			</attributes>
		</link>
		<link id="7-8" from="7" to="8" length="600.0" freespeed="44.44444444444444" capacity="3600.0" permlanes="1.0" oneway="1" modes="rail">
			<attributes>
				<attribute name="railsimTrainCapacity" class="java.lang.Integer">5</attribute>
			</attributes>
		</link>
		<link id="8-9" from="8" to="9" length="9500.0" freespeed="44.44444444444444" capacity="3600.0" permlanes="1.0" oneway="1" modes="rail">
			<attributes>
				<attribute name="railsimTrainCapacity" class="java.lang.Integer">1</attribute>
			</attributes>
		</link>
		<link id="9-10" from="9" to="10" length="100.0" freespeed="2.7778" capacity="3600.0" permlanes="1.0" oneway="1" modes="rail">
			<attributes>
				<attribute name="railsimTrainCapacity" class="java.lang.Integer">1</attribute>
			</attributes>
		</link>
	</links>

	<!-- ====================================================================== -->

</network>
