<?xml version="1.0" encoding="utf-8"?>
<!DOCTYPE population SYSTEM "http://www.matsim.org/files/dtd/population_v5.dtd">
<population>
        <person id="1">
                <plan selected="yes">
                        <act type="h" link="13" end_time="00:02:00"/>
                        <leg mode="car">
                                <route type="links">13 35 58</route>
                        </leg>
                        <act type="h" link="58" />
                </plan>
        </person>

        <person id="2">
                <plan selected="yes">
                        <act type="h" link="13" end_time="00:02:01"/>
                        <leg mode="car">
                                <route type="links">13 35 57</route>
                        </leg>
                        <act type="h" link="57" />
                </plan>
        </person>

        <person id="3">
                <plan selected="yes">
                        <act type="h" link="13" end_time="00:02:02"/>
                        <leg mode="car">
                                <route type="links">13 35 56</route>
                        </leg>
                        <act type="h" link="56" />
                </plan>
        </person>

        <person id="4">
                <plan selected="yes">
                        <act type="h" link="13" end_time="00:02:03"/>
                        <leg mode="car">
                                <route type="links">13 34</route>
                        </leg>
                        <act type="h" link="34" />
                </plan>
        </person>

        <person id="5">
                <plan selected="yes">
                        <act type="h" link="13" end_time="00:02:04"/>
                        <leg mode="car">
                                <route type="links">13 32</route>
                        </leg>
                        <act type="h" link="32" />
                </plan>
        </person>

</population>


