<?xml version="1.0" encoding="utf-8"?>
<!DOCTYPE network SYSTEM "http://www.matsim.org/files/dtd/network_v1.dtd">

<network name="lane layout test network">
   <nodes>
      <node id="1" x="0" y="0"/>
      <node id="2" x="-500" y="500"/>
      <node id="3" x="0" y="500"/>
      <node id="4" x="500" y="500"/>
      <node id="5" x="0" y="1000"/>
      <node id="6" x="-500" y="1000" />
      <node id="7" x="500" y="1000" />
      <node id="8" x="0" y="1500" />
   </nodes>
   <links capperiod="01:00:00">
     <link id="13" from="1" to="3" length="500.00" capacity="3600" freespeed="27.78" permlanes="1"  />
     <link id="32" from="3" to="2" length="500.00" capacity="3600" freespeed="27.78" permlanes="1"  />
     <link id="34" from="3" to="4" length="500.00" capacity="3600" freespeed="27.78" permlanes="1"  />
     <link id="35" from="3" to="5" length="500.00" capacity="3600" freespeed="27.78" permlanes="1"  />
     <link id="57" from="5" to="7" length="500.00" capacity="3600" freespeed="27.78" permlanes="1" />
     <link id="56" from="5" to="6" length="500.00" capacity="3600" freespeed="27.78" permlanes="1" />
     <link id="58" from="5" to="8" length="500.00" capacity="3600" freespeed="27.78" permlanes="1" />
   </links>
</network>
