// -*- C++ -*-

FoamFile
{
	version	2.0;
	format	ascii;
	class	scalarAverageField;
	location	"constant/boundaryData/eastPort/0.0";
	object	ped2Rho;
}


4
(
 1.0 1.0 1.0 1.0
 )
