<?xml version="1.0" encoding="utf-8"?>
<!DOCTYPE plans SYSTEM "http://www.matsim.org/files/dtd/plans_v4.dtd">

<plans>

<!-- ====================================================================== -->

	<person id="1" employed="no">
		<plan selected="yes">
			<act type="h" link="1112" x="890.0" y="685.0" end_time="07:18:16" />
			<leg mode="car">
			</leg>
			<act type="w" link="2223" x="1802.0" y="2782.0" end_time="17:43:36" />
			<leg mode="car">
			</leg>
			<act type="h" link="1112" x="890.0" y="685.0" />
		</plan>

	</person>

<!-- ====================================================================== -->

	<person id="10" employed="no">
		<plan selected="yes">
			<act type="h" link="1112" x="689.0" y="703.0" end_time="07:33:16" />
			<leg mode="car">
			</leg>
			<act type="w" link="3141" x="3869.0" y="1093.0" end_time="17:47:05" />
			<leg mode="car">
			</leg>
			<act type="s" link="3141" x="3605.0" y="735.0" end_time="17:54:27" />
			<leg mode="car">
			</leg>
			<act type="h" link="1112" x="689.0" y="703.0" />
		</plan>

	</person>

<!-- ====================================================================== -->

	<person id="100" employed="no">
		<plan selected="yes">
			<act type="h" link="1112" x="811.0" y="1440.0" end_time="07:03:59" />
			<leg mode="car">
			</leg>
			<act type="w" link="2324" x="1695.0" y="3329.0" end_time="17:41:28" />
			<leg mode="car">
			</leg>
			<act type="h" link="1112" x="811.0" y="1440.0" />
		</plan>

	</person>

<!-- ====================================================================== -->

	<person id="101" employed="no">
		<plan selected="yes">
			<act type="h" link="1112" x="768.0" y="1343.0" end_time="07:18:23" />
			<leg mode="car">
			</leg>
			<act type="w" link="2333" x="2216.0" y="3031.0" end_time="17:40:42" />
			<leg mode="car">
			</leg>
			<act type="h" link="1112" x="768.0" y="1343.0" />
		</plan>

	</person>

<!-- ====================================================================== -->

	<person id="102" employed="no">
		<plan selected="yes">
			<act type="h" link="1112" x="938.0" y="642.0" end_time="07:32:06" />
			<leg mode="pt">
			</leg>
			<act type="w" link="3141" x="3619.0" y="1217.0" end_time="17:27:24" />
			<leg mode="pt">
			</leg>
			<act type="s" link="4142" x="3840.0" y="1205.0" end_time="18:25:10" />
			<leg mode="pt">
			</leg>
			<act type="h" link="1112" x="938.0" y="642.0" />
		</plan>

	</person>

<!-- ====================================================================== -->

	<person id="103" employed="no">
		<plan selected="yes">
			<act type="h" link="1112" x="653.0" y="1442.0" end_time="07:57:03" />
			<leg mode="pt">
			</leg>
			<act type="w" link="2223" x="1923.0" y="2738.0" end_time="17:38:00" />
			<leg mode="pt">
			</leg>
			<act type="s" link="2324" x="2021.0" y="3048.0" end_time="17:41:33" />
			<leg mode="pt">
			</leg>
			<act type="h" link="1112" x="653.0" y="1442.0" />
		</plan>

	</person>

<!-- ====================================================================== -->

	<person id="104" employed="no">
		<plan selected="yes">
			<act type="h" link="1112" x="842.0" y="914.0" end_time="07:30:53" />
			<leg mode="pt">
			</leg>
			<act type="w" link="3141" x="3583.0" y="875.0" end_time="17:29:08" />
			<leg mode="pt">
			</leg>
			<act type="s" link="1323" x="1807.0" y="3029.0" end_time="18:18:40" />
			<leg mode="pt">
			</leg>
			<act type="h" link="1112" x="842.0" y="914.0" />
		</plan>

	</person>

<!-- ====================================================================== -->

	<person id="105" employed="no">
		<plan selected="yes">
			<act type="h" link="1112" x="1198.0" y="1300.0" end_time="07:50:14" />
			<leg mode="pt">
			</leg>
			<act type="w" link="2333" x="2436.0" y="3036.0" end_time="17:11:43" />
			<leg mode="pt">
			</leg>
			<act type="s" link="1323" x="1562.0" y="3237.0" end_time="17:48:28" />
			<leg mode="pt">
			</leg>
			<act type="h" link="1112" x="1198.0" y="1300.0" />
		</plan>

	</person>

<!-- ====================================================================== -->

	<person id="106" employed="no">
		<plan selected="yes">
			<act type="h" link="1121" x="1317.0" y="1308.0" end_time="07:56:50" />
			<leg mode="car">
			</leg>
			<act type="w" link="1323" x="1894.0" y="2993.0" end_time="17:01:46" />
			<leg mode="car">
			</leg>
			<act type="h" link="1121" x="1317.0" y="1308.0" />
		</plan>

	</person>

<!-- ====================================================================== -->

	<person id="107" employed="no">
		<plan selected="yes">
			<act type="h" link="1121" x="1358.0" y="598.0" end_time="07:39:52" />
			<leg mode="car">
			</leg>
			<act type="w" link="1323" x="1766.0" y="2924.0" end_time="17:49:02" />
			<leg mode="car">
			</leg>
			<act type="s" link="2333" x="2320.0" y="2979.0" end_time="17:58:02" />
			<leg mode="car">
			</leg>
			<act type="h" link="1121" x="1358.0" y="598.0" />
		</plan>

	</person>

<!-- ====================================================================== -->

	<person id="108" employed="no">
		<plan selected="yes">
			<act type="h" link="1112" x="618.0" y="987.0" end_time="07:15:14" />
			<leg mode="car">
			</leg>
			<act type="w" link="3141" x="3869.0" y="746.0" end_time="17:32:13" />
			<leg mode="car">
			</leg>
			<act type="h" link="1112" x="618.0" y="987.0" />
		</plan>

	</person>

<!-- ====================================================================== -->

	<person id="109" employed="no">
		<plan selected="yes">
			<act type="h" link="1112" x="725.0" y="609.0" end_time="07:21:46" />
			<leg mode="pt">
			</leg>
			<act type="w" link="2223" x="2134.0" y="2735.0" end_time="17:01:23" />
			<leg mode="pt">
			</leg>
			<act type="h" link="1112" x="725.0" y="609.0" />
		</plan>

	</person>

<!-- ====================================================================== -->

	<person id="11" employed="no">
		<plan selected="yes">
			<act type="h" link="1112" x="764.0" y="1021.0" end_time="07:36:00" />
			<leg mode="car">
			</leg>
			<act type="w" link="2333" x="2293.0" y="2744.0" end_time="17:56:24" />
			<leg mode="car">
			</leg>
			<act type="s" link="2223" x="1979.0" y="2879.0" end_time="18:18:17" />
			<leg mode="car">
			</leg>
			<act type="h" link="1112" x="764.0" y="1021.0" />
		</plan>

	</person>

<!-- ====================================================================== -->

	<person id="110" employed="no">
		<plan selected="yes">
			<act type="h" link="1121" x="1447.0" y="917.0" end_time="07:30:26" />
			<leg mode="pt">
			</leg>
			<act type="w" link="2333" x="2212.0" y="3080.0" end_time="17:59:59" />
			<leg mode="pt">
			</leg>
			<act type="s" link="3141" x="3760.0" y="584.0" end_time="18:35:17" />
			<leg mode="pt">
			</leg>
			<act type="h" link="1121" x="1447.0" y="917.0" />
		</plan>

	</person>

<!-- ====================================================================== -->

	<person id="111" employed="no">
		<plan selected="yes">
			<act type="h" link="1121" x="1403.0" y="565.0" end_time="07:17:52" />
			<leg mode="pt">
			</leg>
			<act type="w" link="3141" x="3742.0" y="1239.0" end_time="17:56:38" />
			<leg mode="pt">
			</leg>
			<act type="h" link="1121" x="1403.0" y="565.0" />
		</plan>

	</person>

<!-- ====================================================================== -->

	<person id="112" employed="no">
		<plan selected="yes">
			<act type="h" link="1112" x="1276.0" y="1447.0" end_time="07:17:51" />
			<leg mode="car">
			</leg>
			<act type="w" link="2324" x="1801.0" y="3343.0" end_time="17:03:15" />
			<leg mode="car">
			</leg>
			<act type="h" link="1112" x="1276.0" y="1447.0" />
		</plan>

	</person>

<!-- ====================================================================== -->

	<person id="113" employed="no">
		<plan selected="yes">
			<act type="h" link="1112" x="630.0" y="733.0" end_time="07:33:24" />
			<leg mode="car">
			</leg>
			<act type="w" link="3141" x="4109.0" y="715.0" end_time="17:02:13" />
			<leg mode="car">
			</leg>
			<act type="s" link="3141" x="3669.0" y="582.0" end_time="17:14:01" />
			<leg mode="car">
			</leg>
			<act type="h" link="1112" x="630.0" y="733.0" />
		</plan>

	</person>

<!-- ====================================================================== -->

	<person id="114" employed="no">
		<plan selected="yes">
			<act type="h" link="1112" x="657.0" y="733.0" end_time="07:27:05" />
			<leg mode="pt">
			</leg>
			<act type="w" link="4142" x="3879.0" y="1434.0" end_time="17:18:41" />
			<leg mode="pt">
			</leg>
			<act type="s" link="2324" x="2166.0" y="3175.0" end_time="17:37:24" />
			<leg mode="pt">
			</leg>
			<act type="h" link="1112" x="657.0" y="733.0" />
		</plan>

	</person>

<!-- ====================================================================== -->

	<person id="115" employed="no">
		<plan selected="yes">
			<act type="h" link="1121" x="1262.0" y="979.0" end_time="07:27:45" />
			<leg mode="car">
			</leg>
			<act type="w" link="3141" x="3870.0" y="964.0" end_time="17:15:07" />
			<leg mode="car">
			</leg>
			<act type="s" link="3141" x="3842.0" y="568.0" end_time="17:41:22" />
			<leg mode="car">
			</leg>
			<act type="h" link="1121" x="1262.0" y="979.0" />
		</plan>

	</person>

<!-- ====================================================================== -->

	<person id="116" employed="no">
		<plan selected="yes">
			<act type="h" link="1112" x="606.0" y="934.0" end_time="07:27:23" />
			<leg mode="car">
			</leg>
			<act type="w" link="3141" x="4134.0" y="961.0" end_time="17:25:05" />
			<leg mode="car">
			</leg>
			<act type="h" link="1112" x="606.0" y="934.0" />
		</plan>

	</person>

<!-- ====================================================================== -->

	<person id="117" employed="no">
		<plan selected="yes">
			<act type="h" link="1121" x="1430.0" y="1280.0" end_time="07:34:48" />
			<leg mode="pt">
			</leg>
			<act type="w" link="2223" x="2126.0" y="2699.0" end_time="17:37:31" />
			<leg mode="pt">
			</leg>
			<act type="h" link="1121" x="1430.0" y="1280.0" />
		</plan>

	</person>

<!-- ====================================================================== -->

	<person id="118" employed="no">
		<plan selected="yes">
			<act type="h" link="1121" x="1186.0" y="692.0" end_time="07:35:58" />
			<leg mode="pt">
			</leg>
			<act type="w" link="4142" x="4336.0" y="1291.0" end_time="17:34:19" />
			<leg mode="pt">
			</leg>
			<act type="h" link="1121" x="1186.0" y="692.0" />
		</plan>

	</person>

<!-- ====================================================================== -->

	<person id="119" employed="no">
		<plan selected="yes">
			<act type="h" link="1112" x="676.0" y="570.0" end_time="07:12:57" />
			<leg mode="pt">
			</leg>
			<act type="w" link="4142" x="4250.0" y="1151.0" end_time="17:01:35" />
			<leg mode="pt">
			</leg>
			<act type="h" link="1112" x="676.0" y="570.0" />
		</plan>

	</person>

<!-- ====================================================================== -->

	<person id="12" employed="no">
		<plan selected="yes">
			<act type="h" link="1112" x="691.0" y="829.0" end_time="07:57:27" />
			<leg mode="car">
			</leg>
			<act type="w" link="3141" x="4209.0" y="777.0" end_time="17:24:02" />
			<leg mode="car">
			</leg>
			<act type="s" link="2324" x="1923.0" y="3225.0" end_time="18:09:21" />
			<leg mode="car">
			</leg>
			<act type="h" link="1112" x="691.0" y="829.0" />
		</plan>

	</person>

<!-- ====================================================================== -->

	<person id="120" employed="no">
		<plan selected="yes">
			<act type="h" link="1112" x="1274.0" y="1413.0" end_time="07:12:47" />
			<leg mode="car">
			</leg>
			<act type="w" link="4142" x="3981.0" y="1388.0" end_time="17:55:21" />
			<leg mode="car">
			</leg>
			<act type="s" link="3141" x="3615.0" y="656.0" end_time="18:09:56" />
			<leg mode="car">
			</leg>
			<act type="h" link="1112" x="1274.0" y="1413.0" />
		</plan>

	</person>

<!-- ====================================================================== -->

	<person id="121" employed="no">
		<plan selected="yes">
			<act type="h" link="1112" x="604.0" y="1017.0" end_time="07:28:26" />
			<leg mode="pt">
			</leg>
			<act type="w" link="4142" x="4297.0" y="1248.0" end_time="17:20:18" />
			<leg mode="pt">
			</leg>
			<act type="h" link="1112" x="604.0" y="1017.0" />
		</plan>

	</person>

<!-- ====================================================================== -->

	<person id="122" employed="no">
		<plan selected="yes">
			<act type="h" link="1121" x="1173.0" y="620.0" end_time="07:54:49" />
			<leg mode="car">
			</leg>
			<act type="w" link="3141" x="4109.0" y="833.0" end_time="17:32:35" />
			<leg mode="car">
			</leg>
			<act type="s" link="2223" x="2155.0" y="2681.0" end_time="17:42:05" />
			<leg mode="car">
			</leg>
			<act type="h" link="1121" x="1173.0" y="620.0" />
		</plan>

	</person>

<!-- ====================================================================== -->

	<person id="123" employed="no">
		<plan selected="yes">
			<act type="h" link="1121" x="1342.0" y="1048.0" end_time="07:02:02" />
			<leg mode="car">
			</leg>
			<act type="w" link="3141" x="3768.0" y="887.0" end_time="17:40:53" />
			<leg mode="car">
			</leg>
			<act type="h" link="1121" x="1342.0" y="1048.0" />
		</plan>

	</person>

<!-- ====================================================================== -->

	<person id="124" employed="no">
		<plan selected="yes">
			<act type="h" link="1121" x="1318.0" y="1261.0" end_time="07:10:19" />
			<leg mode="car">
			</leg>
			<act type="w" link="3141" x="3663.0" y="731.0" end_time="17:26:11" />
			<leg mode="car">
			</leg>
			<act type="h" link="1121" x="1318.0" y="1261.0" />
		</plan>

	</person>

<!-- ====================================================================== -->

	<person id="125" employed="no">
		<plan selected="yes">
			<act type="h" link="1121" x="1128.0" y="741.0" end_time="07:43:48" />
			<leg mode="car">
			</leg>
			<act type="w" link="1323" x="1786.0" y="2816.0" end_time="17:19:17" />
			<leg mode="car">
			</leg>
			<act type="s" link="3141" x="4289.0" y="794.0" end_time="17:46:43" />
			<leg mode="car">
			</leg>
			<act type="h" link="1121" x="1128.0" y="741.0" />
		</plan>

	</person>

<!-- ====================================================================== -->

	<person id="126" employed="no">
		<plan selected="yes">
			<act type="h" link="1121" x="1208.0" y="578.0" end_time="07:36:31" />
			<leg mode="car">
			</leg>
			<act type="w" link="3141" x="4374.0" y="846.0" end_time="17:13:37" />
			<leg mode="car">
			</leg>
			<act type="s" link="2333" x="2444.0" y="2719.0" end_time="17:38:39" />
			<leg mode="car">
			</leg>
			<act type="h" link="1121" x="1208.0" y="578.0" />
		</plan>

	</person>

<!-- ====================================================================== -->

	<person id="127" employed="no">
		<plan selected="yes">
			<act type="h" link="1121" x="1303.0" y="1199.0" end_time="07:41:27" />
			<leg mode="car">
			</leg>
			<act type="w" link="4142" x="4353.0" y="1159.0" end_time="17:59:01" />
			<leg mode="car">
			</leg>
			<act type="h" link="1121" x="1303.0" y="1199.0" />
		</plan>

	</person>

<!-- ====================================================================== -->

	<person id="128" employed="no">
		<plan selected="yes">
			<act type="h" link="1112" x="596.0" y="844.0" end_time="07:15:20" />
			<leg mode="pt">
			</leg>
			<act type="w" link="4142" x="4397.0" y="1148.0" end_time="17:05:22" />
			<leg mode="pt">
			</leg>
			<act type="s" link="2223" x="2033.0" y="2888.0" end_time="17:53:34" />
			<leg mode="pt">
			</leg>
			<act type="h" link="1112" x="596.0" y="844.0" />
		</plan>

	</person>

<!-- ====================================================================== -->

	<person id="129" employed="no">
		<plan selected="yes">
			<act type="h" link="1112" x="1223.0" y="1232.0" end_time="07:06:34" />
			<leg mode="car">
			</leg>
			<act type="w" link="3141" x="4210.0" y="898.0" end_time="17:25:49" />
			<leg mode="car">
			</leg>
			<act type="s" link="2324" x="1636.0" y="3411.0" end_time="18:01:00" />
			<leg mode="car">
			</leg>
			<act type="h" link="1112" x="1223.0" y="1232.0" />
		</plan>

	</person>

<!-- ====================================================================== -->

	<person id="13" employed="no">
		<plan selected="yes">
			<act type="h" link="1121" x="1092.0" y="705.0" end_time="07:32:03" />
			<leg mode="pt">
			</leg>
			<act type="w" link="4142" x="4201.0" y="1425.0" end_time="17:19:16" />
			<leg mode="pt">
			</leg>
			<act type="s" link="3141" x="3748.0" y="945.0" end_time="17:20:51" />
			<leg mode="pt">
			</leg>
			<act type="h" link="1121" x="1092.0" y="705.0" />
		</plan>

	</person>

<!-- ====================================================================== -->

	<person id="130" employed="no">
		<plan selected="yes">
			<act type="h" link="1112" x="1330.0" y="1349.0" end_time="07:46:01" />
			<leg mode="car">
			</leg>
			<act type="w" link="2223" x="2141.0" y="2687.0" end_time="17:09:36" />
			<leg mode="car">
			</leg>
			<act type="s" link="2324" x="1773.0" y="3441.0" end_time="17:59:06" />
			<leg mode="car">
			</leg>
			<act type="h" link="1112" x="1330.0" y="1349.0" />
		</plan>

	</person>

<!-- ====================================================================== -->

	<person id="131" employed="no">
		<plan selected="yes">
			<act type="h" link="1112" x="817.0" y="1259.0" end_time="07:53:00" />
			<leg mode="car">
			</leg>
			<act type="w" link="2333" x="2351.0" y="3011.0" end_time="17:44:50" />
			<leg mode="car">
			</leg>
			<act type="h" link="1112" x="817.0" y="1259.0" />
		</plan>

	</person>

<!-- ====================================================================== -->

	<person id="132" employed="no">
		<plan selected="yes">
			<act type="h" link="1121" x="1412.0" y="1202.0" end_time="07:39:44" />
			<leg mode="car">
			</leg>
			<act type="w" link="2324" x="1971.0" y="3378.0" end_time="17:52:58" />
			<leg mode="car">
			</leg>
			<act type="s" link="2324" x="2213.0" y="3278.0" end_time="18:29:04" />
			<leg mode="car">
			</leg>
			<act type="h" link="1121" x="1412.0" y="1202.0" />
		</plan>

	</person>

<!-- ====================================================================== -->

	<person id="133" employed="no">
		<plan selected="yes">
			<act type="h" link="1121" x="1006.0" y="726.0" end_time="07:05:15" />
			<leg mode="car">
			</leg>
			<act type="w" link="1323" x="1601.0" y="2686.0" end_time="17:48:47" />
			<leg mode="car">
			</leg>
			<act type="h" link="1121" x="1006.0" y="726.0" />
		</plan>

	</person>

<!-- ====================================================================== -->

	<person id="134" employed="no">
		<plan selected="yes">
			<act type="h" link="1121" x="1435.0" y="630.0" end_time="07:28:43" />
			<leg mode="pt">
			</leg>
			<act type="w" link="2333" x="2361.0" y="2845.0" end_time="17:03:25" />
			<leg mode="pt">
			</leg>
			<act type="s" link="3141" x="3731.0" y="1262.0" end_time="17:31:27" />
			<leg mode="pt">
			</leg>
			<act type="h" link="1121" x="1435.0" y="630.0" />
		</plan>

	</person>

<!-- ====================================================================== -->

	<person id="135" employed="no">
		<plan selected="yes">
			<act type="h" link="1112" x="792.0" y="1020.0" end_time="07:02:15" />
			<leg mode="pt">
			</leg>
			<act type="w" link="1323" x="1597.0" y="3105.0" end_time="17:40:05" />
			<leg mode="pt">
			</leg>
			<act type="h" link="1112" x="792.0" y="1020.0" />
		</plan>

	</person>

<!-- ====================================================================== -->

	<person id="136" employed="no">
		<plan selected="yes">
			<act type="h" link="1112" x="700.0" y="633.0" end_time="07:35:30" />
			<leg mode="pt">
			</leg>
			<act type="w" link="2333" x="2169.0" y="2940.0" end_time="17:13:42" />
			<leg mode="pt">
			</leg>
			<act type="s" link="4142" x="4113.0" y="1257.0" end_time="17:48:42" />
			<leg mode="pt">
			</leg>
			<act type="h" link="1112" x="700.0" y="633.0" />
		</plan>

	</person>

<!-- ====================================================================== -->

	<person id="137" employed="no">
		<plan selected="yes">
			<act type="h" link="1121" x="1341.0" y="1146.0" end_time="07:51:38" />
			<leg mode="pt">
			</leg>
			<act type="w" link="1323" x="1766.0" y="2983.0" end_time="17:52:56" />
			<leg mode="pt">
			</leg>
			<act type="h" link="1121" x="1341.0" y="1146.0" />
		</plan>

	</person>

<!-- ====================================================================== -->

	<person id="138" employed="no">
		<plan selected="yes">
			<act type="h" link="1121" x="1239.0" y="908.0" end_time="07:07:00" />
			<leg mode="pt">
			</leg>
			<act type="w" link="2333" x="2151.0" y="3006.0" end_time="17:16:55" />
			<leg mode="pt">
			</leg>
			<act type="s" link="4142" x="4327.0" y="1293.0" end_time="17:58:54" />
			<leg mode="pt">
			</leg>
			<act type="h" link="1121" x="1239.0" y="908.0" />
		</plan>

	</person>

<!-- ====================================================================== -->

	<person id="139" employed="no">
		<plan selected="yes">
			<act type="h" link="1112" x="925.0" y="809.0" end_time="07:51:06" />
			<leg mode="car">
			</leg>
			<act type="w" link="4142" x="4019.0" y="1377.0" end_time="17:39:22" />
			<leg mode="car">
			</leg>
			<act type="s" link="4142" x="4416.0" y="1200.0" end_time="18:30:16" />
			<leg mode="car">
			</leg>
			<act type="h" link="1112" x="925.0" y="809.0" />
		</plan>

	</person>

<!-- ====================================================================== -->

	<person id="14" employed="no">
		<plan selected="yes">
			<act type="h" link="1112" x="762.0" y="1341.0" end_time="07:45:22" />
			<leg mode="car">
			</leg>
			<act type="w" link="4142" x="4446.0" y="1104.0" end_time="17:34:27" />
			<leg mode="car">
			</leg>
			<act type="h" link="1112" x="762.0" y="1341.0" />
		</plan>

	</person>

<!-- ====================================================================== -->

	<person id="140" employed="no">
		<plan selected="yes">
			<act type="h" link="1112" x="1063.0" y="1081.0" end_time="07:15:56" />
			<leg mode="pt">
			</leg>
			<act type="w" link="3141" x="4132.0" y="740.0" end_time="17:16:03" />
			<leg mode="pt">
			</leg>
			<act type="s" link="4142" x="4292.0" y="1395.0" end_time="17:50:54" />
			<leg mode="pt">
			</leg>
			<act type="h" link="1112" x="1063.0" y="1081.0" />
		</plan>

	</person>

<!-- ====================================================================== -->

	<person id="141" employed="no">
		<plan selected="yes">
			<act type="h" link="1112" x="965.0" y="1354.0" end_time="07:48:57" />
			<leg mode="car">
			</leg>
			<act type="w" link="1323" x="1850.0" y="3016.0" end_time="17:28:57" />
			<leg mode="car">
			</leg>
			<act type="h" link="1112" x="965.0" y="1354.0" />
		</plan>

	</person>

<!-- ====================================================================== -->

	<person id="142" employed="no">
		<plan selected="yes">
			<act type="h" link="1121" x="1360.0" y="685.0" end_time="07:38:19" />
			<leg mode="pt">
			</leg>
			<act type="w" link="1323" x="1646.0" y="2658.0" end_time="17:44:54" />
			<leg mode="pt">
			</leg>
			<act type="s" link="4142" x="4274.0" y="1371.0" end_time="18:21:15" />
			<leg mode="pt">
			</leg>
			<act type="h" link="1121" x="1360.0" y="685.0" />
		</plan>

	</person>

<!-- ====================================================================== -->

	<person id="143" employed="no">
		<plan selected="yes">
			<act type="h" link="1112" x="647.0" y="1135.0" end_time="07:30:16" />
			<leg mode="car">
			</leg>
			<act type="w" link="3141" x="4159.0" y="941.0" end_time="17:14:59" />
			<leg mode="car">
			</leg>
			<act type="h" link="1112" x="647.0" y="1135.0" />
		</plan>

	</person>

<!-- ====================================================================== -->

	<person id="144" employed="no">
		<plan selected="yes">
			<act type="h" link="1112" x="1135.0" y="1342.0" end_time="07:28:20" />
			<leg mode="car">
			</leg>
			<act type="w" link="1323" x="1833.0" y="3153.0" end_time="17:19:12" />
			<leg mode="car">
			</leg>
			<act type="h" link="1112" x="1135.0" y="1342.0" />
		</plan>

	</person>

<!-- ====================================================================== -->

	<person id="145" employed="no">
		<plan selected="yes">
			<act type="h" link="1121" x="1166.0" y="1111.0" end_time="07:16:21" />
			<leg mode="car">
			</leg>
			<act type="w" link="2324" x="2259.0" y="3338.0" end_time="17:14:04" />
			<leg mode="car">
			</leg>
			<act type="s" link="2223" x="2103.0" y="2732.0" end_time="17:26:13" />
			<leg mode="car">
			</leg>
			<act type="h" link="1121" x="1166.0" y="1111.0" />
		</plan>

	</person>

<!-- ====================================================================== -->

	<person id="146" employed="no">
		<plan selected="yes">
			<act type="h" link="1112" x="1115.0" y="1149.0" end_time="07:28:40" />
			<leg mode="pt">
			</leg>
			<act type="w" link="3141" x="3795.0" y="1169.0" end_time="17:43:41" />
			<leg mode="pt">
			</leg>
			<act type="h" link="1112" x="1115.0" y="1149.0" />
		</plan>

	</person>

<!-- ====================================================================== -->

	<person id="147" employed="no">
		<plan selected="yes">
			<act type="h" link="1112" x="1091.0" y="1398.0" end_time="07:06:15" />
			<leg mode="car">
			</leg>
			<act type="w" link="3141" x="3984.0" y="862.0" end_time="17:38:28" />
			<leg mode="car">
			</leg>
			<act type="h" link="1112" x="1091.0" y="1398.0" />
		</plan>

	</person>

<!-- ====================================================================== -->

	<person id="148" employed="no">
		<plan selected="yes">
			<act type="h" link="1112" x="1125.0" y="1157.0" end_time="07:11:04" />
			<leg mode="car">
			</leg>
			<act type="w" link="2223" x="2276.0" y="2699.0" end_time="17:48:37" />
			<leg mode="car">
			</leg>
			<act type="h" link="1112" x="1125.0" y="1157.0" />
		</plan>

	</person>

<!-- ====================================================================== -->

	<person id="149" employed="no">
		<plan selected="yes">
			<act type="h" link="1112" x="764.0" y="1166.0" end_time="07:10:39" />
			<leg mode="pt">
			</leg>
			<act type="w" link="3141" x="3552.0" y="1343.0" end_time="17:27:25" />
			<leg mode="pt">
			</leg>
			<act type="s" link="4142" x="4199.0" y="1186.0" end_time="18:18:16" />
			<leg mode="pt">
			</leg>
			<act type="h" link="1112" x="764.0" y="1166.0" />
		</plan>

	</person>

<!-- ====================================================================== -->

	<person id="15" employed="no">
		<plan selected="yes">
			<act type="h" link="1121" x="1096.0" y="807.0" end_time="07:44:56" />
			<leg mode="pt">
			</leg>
			<act type="w" link="4142" x="3821.0" y="1255.0" end_time="17:40:56" />
			<leg mode="pt">
			</leg>
			<act type="s" link="3141" x="3662.0" y="566.0" end_time="18:04:05" />
			<leg mode="pt">
			</leg>
			<act type="h" link="1121" x="1096.0" y="807.0" />
		</plan>

	</person>

<!-- ====================================================================== -->

	<person id="150" employed="no">
		<plan selected="yes">
			<act type="h" link="1112" x="653.0" y="697.0" end_time="07:01:47" />
			<leg mode="pt">
			</leg>
			<act type="w" link="2333" x="2408.0" y="3147.0" end_time="17:31:07" />
			<leg mode="pt">
			</leg>
			<act type="s" link="1323" x="1695.0" y="3242.0" end_time="17:36:14" />
			<leg mode="pt">
			</leg>
			<act type="h" link="1112" x="653.0" y="697.0" />
		</plan>

	</person>

<!-- ====================================================================== -->

	<person id="151" employed="no">
		<plan selected="yes">
			<act type="h" link="1121" x="1155.0" y="907.0" end_time="07:07:56" />
			<leg mode="car">
			</leg>
			<act type="w" link="3141" x="3966.0" y="890.0" end_time="17:00:35" />
			<leg mode="car">
			</leg>
			<act type="h" link="1121" x="1155.0" y="907.0" />
		</plan>

	</person>

<!-- ====================================================================== -->

	<person id="152" employed="no">
		<plan selected="yes">
			<act type="h" link="1112" x="658.0" y="721.0" end_time="07:25:24" />
			<leg mode="car">
			</leg>
			<act type="w" link="2223" x="1890.0" y="2802.0" end_time="17:00:45" />
			<leg mode="car">
			</leg>
			<act type="h" link="1112" x="658.0" y="721.0" />
		</plan>

	</person>

<!-- ====================================================================== -->

	<person id="153" employed="no">
		<plan selected="yes">
			<act type="h" link="1121" x="1378.0" y="712.0" end_time="07:01:31" />
			<leg mode="pt">
			</leg>
			<act type="w" link="4142" x="3983.0" y="1368.0" end_time="17:02:51" />
			<leg mode="pt">
			</leg>
			<act type="s" link="3141" x="3648.0" y="1131.0" end_time="17:58:17" />
			<leg mode="pt">
			</leg>
			<act type="h" link="1121" x="1378.0" y="712.0" />
		</plan>

	</person>

<!-- ====================================================================== -->

	<person id="154" employed="no">
		<plan selected="yes">
			<act type="h" link="1112" x="1094.0" y="1101.0" end_time="07:41:12" />
			<leg mode="pt">
			</leg>
			<act type="w" link="2324" x="1882.0" y="3447.0" end_time="17:21:13" />
			<leg mode="pt">
			</leg>
			<act type="h" link="1112" x="1094.0" y="1101.0" />
		</plan>

	</person>

<!-- ====================================================================== -->

	<person id="155" employed="no">
		<plan selected="yes">
			<act type="h" link="1112" x="709.0" y="593.0" end_time="07:49:13" />
			<leg mode="car">
			</leg>
			<act type="w" link="2223" x="1962.0" y="2729.0" end_time="17:32:08" />
			<leg mode="car">
			</leg>
			<act type="h" link="1112" x="709.0" y="593.0" />
		</plan>

	</person>

<!-- ====================================================================== -->

	<person id="156" employed="no">