<?xml version="1.0" encoding="utf-8"?>
<!DOCTYPE network SYSTEM "http://www.matsim.org/files/dtd/network_v1.dtd">

<network name="braess network">
   <nodes>
      <node id="0" x="-200" y="200"/>
      <node id="1" x="0" y="200"/>
      <node id="2" x="200" y="200"/>
      <node id="3" x="400" y="400"/>
      <node id="4" x="400" y="0"/>
      <node id="5" x="600" y="200"/>
      <node id="6" x="800" y="200"/>
   </nodes>
   <links capperiod="01:00:00">
      <link id="0_1" from="0" to="1" length="200.00" capacity="3600" freespeed="200" permlanes="1"  />
      <link id="1_2" from="1" to="2" length="200.00" capacity="3600" freespeed="200" permlanes="1"  />
      <link id="2_3" from="2" to="3" length="200.00" capacity="1800" freespeed="20" permlanes="1"  />
      <link id="2_4" from="2" to="4" length="200.00" capacity="1800" freespeed="10" permlanes="1"  />
      <link id="3_4" from="3" to="4" length="200.00" capacity="1800" freespeed="200" permlanes="1"  />
      <link id="3_5" from="3" to="5" length="200.00" capacity="1800" freespeed="10" permlanes="1"  />
      <link id="4_5" from="4" to="5" length="200.00" capacity="1800" freespeed="20" permlanes="1"  />
      <link id="5_6" from="5" to="6" length="200.00" capacity="3600" freespeed="200" permlanes="1"  />
   </links>
</network>
