<?xml version="1.0" encoding="utf-8"?>
<!DOCTYPE plans SYSTEM "http://www.matsim.org/files/dtd/plans_v4.dtd">

<plans xml:lang="de-CH">

	<person id="100">
		<plan selected="yes">
			<act type="h" link="1" facility="1" x="-25000.0" y="0.0" end_time="06:00:00" />
			<leg num="0" mode="car" dep_time="06:00:00">
				<route dist="15000.0">
					2 7 12 
				</route>
			</leg>
			<act type="w" link="20" facility="20" x="10000.0" y="0.0" dur="08:00:00" />
			<leg num="1" mode="car" dep_time="14:00:00">
				<route dist="55000.0">
					13 14 15 1 
				</route>
			</leg>
			<act type="h" link="1" facility="1" x="-25000.0" y="0.0" />
		</plan>

	</person>

</plans>
