<?xml version="1.0" encoding="UTF-8"?>
<!DOCTYPE transitSchedule SYSTEM "http://www.matsim.org/files/dtd/transitSchedule_v1.dtd">

<transitSchedule>
	<transitStops>
		<stopFacility id="0" x="1000.0" y="1000.0" linkRefId= "20"/>
		<stopFacility id="1" x="3000.0" y="1000.0" linkRefId= "1"/>
		<stopFacility id="10" x="1000.0" y="5000.0" linkRefId= "22"/>
		<stopFacility id="14" x="9000.0" y="5000.0" linkRefId= "38"/>
		<stopFacility id="15" x="1000.0" y="7000.0" linkRefId= "23"/>
		<stopFacility id="19" x="9000.0" y="7000.0" linkRefId= "39"/>
		<stopFacility id="2" x="5000.0" y="1000.0" linkRefId= "2"/>
		<stopFacility id="20" x="1000.0" y="9000.0" linkRefId= "16"/>
		<stopFacility id="21" x="3000.0" y="9000.0" linkRefId= "17"/>
		<stopFacility id="22" x="5000.0" y="9000.0" linkRefId= "18"/>
		<stopFacility id="23" x="7000.0" y="9000.0" linkRefId= "19"/>
		<stopFacility id="24" x="9000.0" y="9000.0" linkRefId= "59"/>
		<stopFacility id="3" x="7000.0" y="1000.0" linkRefId= "3"/>
		<stopFacility id="4" x="9000.0" y="1000.0" linkRefId= "36"/>
		<stopFacility id="5" x="1000.0" y="3000.0" linkRefId= "21"/>
		<stopFacility id="6" x="3000.0" y="3000.0" linkRefId= "64"/>
		<stopFacility id="9" x="9000.0" y="3000.0" linkRefId= "37"/>
	</transitStops>
	<transitLine id="Blue Line">
		<transitRoute id="Blue Route 0_20">
			<transportMode>pt</transportMode>
			<routeProfile>
				<stop refId="0" arrivalOffset="00:00:00" departureOffset="00:00:02"/>
				<stop refId="5" arrivalOffset="00:00:04" departureOffset="00:00:06"/>
				<stop refId="10" arrivalOffset="00:00:08" departureOffset="00:00:10"/>
				<stop refId="15" arrivalOffset="00:00:12" departureOffset="00:00:14"/>
				<stop refId="20" arrivalOffset="00:00:16" departureOffset="00:00:18"/>
			</routeProfile>
			<route>
				<link refId="20"/>
				<link refId="21"/>
				<link refId="22"/>
				<link refId="23"/>
			</route>
			
			<departures>
				<departure id="T2.3" departureTime="08:00:02" vehicleRefId="tr_3" />
				<departure id="T2.4" departureTime="08:00:12" vehicleRefId="tr_4" />
				<!--			
				<departure id="T2.0" departureTime="08:00:00" vehicleRefId="tr_0" />
				<departure id="T2.1" departureTime="08:00:10" vehicleRefId="tr_1" />
				<departure id="T2.2" departureTime="08:00:20" vehicleRefId="tr_2" />
				<departure id="T2.3" departureTime="08:00:30" vehicleRefId="tr_3" />
				<departure id="T2.4" departureTime="08:00:40" vehicleRefId="tr_4" />
				<departure id="T2.5" departureTime="08:00:50" vehicleRefId="tr_5" />
				<departure id="T2.6" departureTime="08:01:00" vehicleRefId="tr_6" />
				-->
			</departures>
		</transitRoute>
	</transitLine>
	
	<!--
	<transitLine id="Red Line">
		<transitRoute id="Red route 0_24">
			<transportMode>pt</transportMode>
			<routeProfile>
				<stop refId="0" arrivalOffset="00:00:00" departureOffset="00:00:00"/>
				<stop refId="5" arrivalOffset="00:00:10" departureOffset="00:10:00"/>
				<stop refId="6" arrivalOffset="00:20:20" departureOffset="00:20:00"/>
				<stop refId="1" arrivalOffset="00:30:30" departureOffset="00:30:00"/>
				<stop refId="2" arrivalOffset="00:40:40" departureOffset="00:40:00"/>
				<stop refId="3" arrivalOffset="00:50:50" departureOffset="00:50:00"/>
				<stop refId="4" arrivalOffset="01:00:10" departureOffset="01:00:00"/>
				<stop refId="9" arrivalOffset="01:10:00" departureOffset="01:10:00"/>
				<stop refId="14" arrivalOffset="01:20:00" departureOffset="01:20:00"/>
				<stop refId="19" arrivalOffset="01:30:00" departureOffset="01:30:00"/>
				<stop refId="24" arrivalOffset="01:40:00" departureOffset="01:40:00"/>
			</routeProfile>
			
			<route>
				<link refId="20" />
				<link refId="4" />
				<link refId="64" />
				<link refId="1" />
				<link refId="2" />
				<link refId="3" />
				<link refId="36" />
				<link refId="37" />
				<link refId="38" />
				<link refId="39" />
			</route>
		
			<departures>
				<departure id="T6.1" departureTime="08:00:00" vehicleRefId="tr_56" />
				<departure id="T6.2" departureTime="08:30:00" vehicleRefId="tr_57" />
				<departure id="T6.3" departureTime="09:00:00" vehicleRefId="tr_58" />
				<departure id="T6.4" departureTime="09:30:00" vehicleRefId="tr_59" />
				<departure id="T6.5" departureTime="10:00:00" vehicleRefId="tr_60" />
				<departure id="T6.6" departureTime="10:30:00" vehicleRefId="tr_61" />
				<departure id="T6.7" departureTime="11:00:00" vehicleRefId="tr_62" />
				<departure id="T6.8" departureTime="11:30:00" vehicleRefId="tr_63" />
				<departure id="T6.9" departureTime="12:00:00" vehicleRefId="tr_64" />
				<departure id="T6.10" departureTime="12:30:00" vehicleRefId="tr_65" />
				<departure id="T6.11" departureTime="13:00:00" vehicleRefId="tr_66" />
			</departures>
		</transitRoute>
	</transitLine>
	-->
</transitSchedule>