<?xml version="1.0" encoding="UTF-8"?>
<population
  xmlns="http://www.matsim.org/files/dtd"
  xmlns:xsi="http://www.w3.org/2001/XMLSchema-instance"
  xsi:schemaLocation="http://www.matsim.org/files/dtd http://www.matsim.org/files/dtd/population_v5.0.xsd">

<person id="23" sex="m" age="23" license="true" carAvailable="sometimes" isEmployed="true">
  <travelcard>
    <swissTravelCard>ch-HT-2y</swissTravelCard>
  </travelcard>
  <knowledge>
    <description>some additional information</description>
    <activity type="w" frequency="4">
        <location>
          <actLocation>
            <facilityId refId="666" />
          </actLocation>
        </location>
        <capacity persons="40" />
        <openingTime day="wk" startTime="08:00:00" endTime="17:00:00"/>
    </activity>
    <activity type="h">
        <location>
          <actLocation>
            <facilityId refId="666" />
          </actLocation>
        </location>
    </activity>
  </knowledge>
	<plan selected="true" score="42.42">
		<act type="h" duration="00:23:00" endTime="06:00:00">
      <location>
        <coordinate>
          <xCoord>48.28</xCoord>
          <yCoord>7.56</yCoord>
        </coordinate>
      </location>
    </act>
		<leg mode="car" departureTime="06:05:00" travelTime="00:25:00" arrivalTime="06:30:00">
    	<route distance="45.5" travelTime="00:23:23">
			  <link refId="23"/>
			  <link refId="24"/>
			</route>
		</leg>
 		<act type="w" endTime="12:10:00" >
      <location>
        <actLocation>
          <facilityId refId="666" />
        </actLocation>
      </location>
    </act>
    <leg mode="car">
      <route>
        <link refId="23" />
      </route>
    </leg>
    <act type="w" >
      <location>
        <actLocation>
          <facilityId refId="666" />
        </actLocation>
    </location>
    </act>
    <leg mode="pt">
      
    </leg>
    <act type="h">
      <location>
        <coordinate>
          <xCoord>48.28</xCoord>
          <yCoord>7.56</yCoord>
        </coordinate>
      </location>
    </act>
	</plan>
  <fiscalHouseholdId refId="23"/>
</person>

  <household id="23">
    <members>
      <personId refId="23" />
      <personId refId="42" />
      <personId refId="43" />
    </members>
    <location>
      <actLocation>
        <facilityId refId="666" />
      </actLocation>
    </location>
    <vehicleDefinitionId refId="23" />
    <vehicleDefinitionId refId="42" />
    <income currency="eur" period="month">
      50000
    </income>
    <language name="german" /> 
  </household>

  <household id="24">
    <members>
      <personId refId="44" />
      <personId refId="45" />
    </members>
    <location>
      <coordinate>
        <xCoord>48.28</xCoord>
        <yCoord>7.56</yCoord>
      </coordinate>
    </location>
    <vehicleDefinitionId refId="23" />
    <income currency="eur" period="day">
      1000
    </income>    
  </household>

</population>