<?xml version="1.0" encoding="utf-8"?>
<!DOCTYPE network SYSTEM "http://www.matsim.org/files/dtd/network_v1.dtd">

<network>

<!-- ====================================================================== -->

	<nodes>
		<node id="1" x="0.0" y="1000.0" />
		<node id="2" x="0.0" y="0.0" />
		<node id="3" x="500.0" y="500.0" />
		<node id="4" x="1500.0" y="500.0" />
		<node id="5" x="2500.0" y="500.0" />
		<node id="6" x="3500.0" y="500.0" />
		<node id="7" x="4500.0" y="500.0" />
		<node id="8" x="5000.0" y="1000.0" />
		<node id="9" x="5000.0" y="0.0" />
	</nodes>

<!-- ====================================================================== -->

	<links capperiod="01:00:00" effectivecellsize="7.5" effectivelanewidth="NaN">
		<link id="1" from="1" to="3" length="1000.0" freespeed="10.0" capacity="3600.0" permlanes="1.0" oneway="1" />
		<link id="2" from="2" to="3" length="1000.0" freespeed="10.0" capacity="3600.0" permlanes="1.0" oneway="1" />
		<link id="3" from="3" to="4" length="1000.0" freespeed="10.0" capacity="3600.0" permlanes="1.0" oneway="1" />
		<link id="4" from="4" to="5" length="1000.0" freespeed="10.0" capacity="3600.0" permlanes="1.0" oneway="1" />
		<link id="5" from="5" to="6" length="1000.0" freespeed="10.0" capacity="3600.0" permlanes="1.0" oneway="1" />
		<link id="6" from="6" to="7" length="1000.0" freespeed="10.0" capacity="3600.0" permlanes="1.0" oneway="1" />
		<link id="7" from="7" to="8" length="1000.0" freespeed="10.0" capacity="3600.0" permlanes="1.0" oneway="1" />
		<link id="8" from="7" to="9" length="1000.0" freespeed="10.0" capacity="3600.0" permlanes="1.0" oneway="1" />
	</links>

<!-- ====================================================================== -->

</network>
