<?xml version="1.0" encoding="UTF-8"?>
<!DOCTYPE network SYSTEM "http://www.matsim.org/files/dtd/network_v2.dtd">
<network name="test network">

	<attributes>
		<attribute name="coordinateReferenceSystem" class="java.lang.String">Atlantis</attribute>
	</attributes>
	<!-- ====================================================================== -->

	<nodes>
		<node id="A" x="-2000.0" y="1000.0">
		</node>
		<node id="A0" x="-2100.0" y="1100.0">
		</node>
		<node id="B" x="-2000.0" y="-1000.0">
		</node>
		<node id="B0" x="-2100.0" y="-1100.0">
		</node>
		<node id="C" x="2000.0" y="1000.0">
		</node>
		<node id="C0" x="2100.0" y="1100.0">
		</node>
		<node id="D" x="2000.0" y="-1000.0">
		</node>
		<node id="D0" x="2100.0" y="-1100.0">
		</node>
		<node id="X0" x="-250.0" y="0.0">
		</node>
		<node id="X1" x="250.0" y="0.0">
		</node>
	</nodes>

	<!-- ====================================================================== -->

	<links capperiod="01:00:00" effectivecellsize="7.5" effectivelanewidth="3.75">
		<link id="A" from="A" to="A0" length="141.4213562373095" freespeed="2.77" capacity="3600.0" permlanes="1.0" oneway="1" modes="rail">
			<attributes>
				<attribute name="railsimTrainCapacity" class="java.lang.Integer">999</attribute>
			</attributes>
		</link>
		<link id="B" from="B0" to="B" length="141.4213562373095" freespeed="2.77" capacity="3600.0" permlanes="1.0" oneway="1" modes="rail">
			<attributes>
				<attribute name="railsimTrainCapacity" class="java.lang.Integer">999</attribute>
			</attributes>
		</link>
		<link id="B_X0" from="B" to="X0" length="2015.5644370746375" freespeed="15.0" capacity="3600.0" permlanes="1.0" oneway="1" modes="rail">
		</link>
		<link id="C" from="C" to="C0" length="141.4213562373095" freespeed="2.77" capacity="3600.0" permlanes="1.0" oneway="1" modes="rail">
			<attributes>
				<attribute name="railsimTrainCapacity" class="java.lang.Integer">999</attribute>
			</attributes>
		</link>
		<link id="D" from="D0" to="D" length="141.4213562373095" freespeed="2.77" capacity="3600.0" permlanes="1.0" oneway="1" modes="rail">
			<attributes>
				<attribute name="railsimTrainCapacity" class="java.lang.Integer">999</attribute>
			</attributes>
		</link>
		<link id="D_X0" from="D" to="X0" length="2462.214450449026" freespeed="15.0" capacity="3600.0" permlanes="1.0" oneway="1" modes="rail">
		</link>
		<link id="X" from="X0" to="X1" length="500.0" freespeed="2.77" capacity="3600.0" permlanes="1.0" oneway="1" modes="rail">
			<attributes>
				<attribute name="railsimTrainCapacity" class="java.lang.Integer">2</attribute>
			</attributes>
		</link>
		<link id="X1_A" from="X1" to="A" length="2462.214450449026" freespeed="15.0" capacity="3600.0" permlanes="1.0" oneway="1" modes="rail">
		</link>
		<link id="X1_C" from="X1" to="C" length="2015.5644370746375" freespeed="15.0" capacity="3600.0" permlanes="1.0" oneway="1" modes="rail">
		</link>
	</links>

	<!-- ====================================================================== -->

</network>
