<?xml version="1.0" ?>
<!DOCTYPE network SYSTEM "http://www.matsim.org/files/dtd/network_v1.dtd">
<network>
	<nodes>
		<node id="1" x="3940.1918" y="-2485.0446"/>
		<node id="2" x="3893.7418" y="-2584.9121"/>
		<node id="3" x="4762.3569" y="-4156.0548"/>
		<node id="4" x="4402.3694" y="-4395.2724"/>
		<node id="5" x="4294.8376" y="-3523.1736"/>
		<node id="6" x="3150.8321" y="-2587.9409"/>
		<node id="7" x="3079.0088" y="-2674.396"/>
		<node id="8" x="5829.5094" y="-4750.7508"/>
		<node id="9" x="765.5907" y="-3127.4676"/>
		<node id="10" x="1796.9609" y="-2847.2518"/>
		<node id="11" x="1613.9342" y="-3276.3321"/>
		<node id="12" x="1101.8713" y="-2916.9678"/>
		<node id="13" x="1048.5264" y="-3816.5737"/>
		<node id="14" x="1510.9523" y="-3678.7814"/>
		<node id="15" x="1595.7554" y="-3949.9319"/>
		<node id="16" x="299.5735" y="-3886.1963"/>
		<node id="17" x="1223.8026" y="-4057.896"/>
		<node id="18" x="1348.8111" y="-4069.7988"/>
		<node id="19" x="1823.7334" y="-3878.1925"/>
		<node id="20" x="2126.3116" y="-4535.0972"/>
		<node id="21" x="2587.1827" y="-3972.6167"/>
		<node id="22" x="2601.6984" y="-3163.3705"/>
		<node id="23" x="2950.5903" y="-2910.665"/>
		<node id="24" x="2457.5143" y="-3263.2317"/>
		<node id="25" x="2536.7609" y="-2894.4909"/>
		<node id="26" x="2699.6788" y="-3083.5346"/>
		<node id="27" x="2761.3702" y="-3039.9877"/>
		<node id="28" x="2932.776" y="-3384.8423"/>
		<node id="29" x="2598.9688" y="-3452.5322"/>
		<node id="30" x="4992.5426" y="-3523.8228"/>
		<node id="31" x="4900.9804" y="-2016.2967"/>
		<node id="32" x="3505.2961" y="-1733.5814"/>
		<node id="33" x="2169.8585" y="-3943.5854"/>
		<node id="34" x="1934.2726" y="-2160.6928"/>
		<node id="37" x="1861.8445" y="-2562.0658"/>
		<node id="38" x="2027.2985" y="-2631.0689"/>
		<node id="39" x="1538.4881" y="-3233.8937"/>
		<node id="40" x="1378.7569" y="-3500.8588"/>
		<node id="41" x="954.1748" y="-3635.1284"/>
		<node id="42" x="1314.5077" y="-3446.0856"/>
		<node id="43" x="1822.2631" y="-3661.9329"/>
		<node id="44" x="1426.3949" y="-4213.3517"/>
		<node id="45" x="679.8215" y="-4139.695"/>
		<node id="46" x="619.2843" y="-3731.0713"/>
		<node id="47" x="1287.5057" y="-4235.2316"/>
		<node id="48" x="2741.0544" y="-3358.0269"/>
		<node id="49" x="2808.546" y="-3457.3119"/>
		<node id="50" x="2681.3028" y="-3558.6515"/>
		<node id="52" x="3164.1789" y="-3925.4409"/>
		<node id="53" x="2319.0333" y="-3057.3292"/>
		<node id="54" x="2149.0481" y="-3307.914"/>
		<node id="55" x="2377.5819" y="-3143.3224"/>
		<node id="56" x="4303.2394" y="-3448.3823"/>
		<node id="57" x="4319.2034" y="-3878.7937"/>
		<node id="58" x="3585.7773" y="-3359.3469"/>
		<node id="59" x="3226.9121" y="-3345.9461"/>
		<node id="60" x="3577.0447" y="-3774.6099"/>
		<node id="61" x="5244.5469" y="-3856.8461"/>
		<node id="62" x="5420.9958" y="-4270.5499"/>
		<node id="63" x="4954.4016" y="-4463.2973"/>
		<node id="64" x="4752.2512" y="-3836.1341"/>
		<node id="65" x="4555.8645" y="-3832.178"/>
		<node id="66" x="4384.5801" y="-2946.7248"/>
		<node id="67" x="4638.1194" y="-3007.4327"/>
		<node id="68" x="4730.3495" y="-3422.5444"/>
		<node id="69" x="5368.5721" y="-2591.6085"/>
		<node id="70" x="4701.2855" y="-2516.1463"/>
		<node id="71" x="4696.8382" y="-2720.0329"/>
		<node id="72" x="4062.3332" y="-3588.3155"/>
		<node id="73" x="4245.6001" y="-6052.7489"/>
		<node id="74" x="2217.434" y="-1245.5502"/>
		<node id="75" x="1964.4113" y="-1182.1982"/>
		<node id="76" x="1730.3667" y="-2085.3018"/>
		<node id="77" x="2574.0875" y="-1745.0918"/>
		<node id="78" x="2392.6422" y="-1917.4649"/>
		<node id="79" x="2791.8219" y="-1876.6397"/>
		<node id="80" x="2642.1295" y="-2162.4161"/>
		<node id="81" x="2524.19" y="-2439.1202"/>
		<node id="82" x="2562.3759" y="-2696.8893"/>
		<node id="83" x="2450.7677" y="-2788.3715"/>
		<node id="84" x="2252.022" y="-2543.4512"/>
		<node id="85" x="2624.5838" y="-2826.794"/>
		<node id="86" x="2814.5025" y="-2711.2882"/>
		<node id="88" x="2682.9547" y="-2933.5587"/>
		<node id="89" x="2612.3252" y="-2974.8122"/>
		<node id="90" x="2254.6725" y="-3481.4399"/>
		<node id="91" x="2419.859" y="-3745.5265"/>
		<node id="92" x="1848.3062" y="-4230.8927"/>
		<node id="93" x="2926.2134" y="-4002.7119"/>
		<node id="94" x="1864.3641" y="-3389.8029"/>
		<node id="95" x="1269.2234" y="-3653.9873"/>
		<node id="96" x="1312.7703" y="-3738.178"/>
		<node id="97" x="868.5922" y="-3456.5748"/>
		<node id="98" x="1026.4831" y="-3391.3778"/>
		<node id="99" x="743.7578" y="-3810.7561"/>
		<node id="100" x="482.4765" y="-3552.378"/>
		<node id="101" x="1693.0797" y="-4371.0593"/>
		<node id="102" x="2236.6993" y="-2938.4023"/>
		<node id="103" x="1116.4619" y="-3271.6167"/>
		<node id="104" x="1750.9159" y="-2836.2459"/>
		<node id="105" x="275.4307" y="-3791.1343"/>
		<node id="106" x="2878.6962" y="-3263.1629"/>
		<node id="107" x="2052.0274" y="-2886.637"/>
		<node id="108" x="840.7649" y="-3299.2325"/>
		<node id="110" x="805.3995" y="-3184.2952"/>
		<node id="111" x="2520.1519" y="-164.2551"/>
		<node id="112" x="186.9775" y="-3937.1252"/>
		<node id="113" x="1583.908" y="-3677.7794"/>
		<node id="115" x="4517.6647" y="-2405.6406"/>
		<node id="116" x="4526.8744" y="-2534.5767"/>
		<node id="118" x="1550.5614" y="-3384.5419"/>
		<node id="119" x="2730.2309" y="-2593.6847"/>
		<node id="120" x="2063.0051" y="-2421.5734"/>
		<node id="121" x="2096.0127" y="-2136.2931"/>
		<node id="122" x="4593.3207" y="-6607.3457"/>
		<node id="123" x="6160.9417" y="-461.9447"/>
		<node id="124" x="6152.1137" y="-1088.1646"/>
		<node id="125" x="6929.1162" y="-1340.4466"/>
		<node id="126" x="5361.1157" y="-528.5698"/>
		<node id="127" x="4319.2163" y="-1899.6337"/>
		<node id="128" x="4536.8768" y="-755.1322"/>
		<node id="129" x="5243.3813" y="-893.1027"/>
		<node id="130" x="6482.8119" y="-3971.3295"/>
		<node id="133" x="6145.8768" y="-6001.0245"/>
		<node id="134" x="5328.1633" y="-5488.0951"/>
		<node id="135" x="5680.3376" y="-6729.9975"/>
		<node id="137" x="5181.5449" y="-5317.1821"/>
		<node id="138" x="6149.5937" y="-4806.5123"/>
		<node id="139" x="6781.4632" y="-9847.5303"/>
		<node id="140" x="5004.3302" y="-7044.19"/>
		<node id="141" x="6112.7222" y="-5204.3154"/>
		<node id="142" x="4345.2716" y="-6312.8376"/>
		<node id="143" x="3052.4579" y="-1098.5109"/>
		<node id="144" x="3510.3775" y="-1128.2459"/>
		<node id="145" x="1894.0487" y="-2383.0383"/>
		<node id="146" x="1544.4978" y="-2061.5003"/>
		<node id="147" x="1546.9337" y="-2313.6153"/>
		<node id="148" x="6789.9883" y="-3891.8728"/>
		<node id="149" x="6864.3259" y="-4977.2016"/>
		<node id="150" x="4474.6696" y="-1114.2999"/>
		<node id="151" x="4238.7459" y="-1318.4813"/>
		<node id="152" x="4288.0543" y="-1080.2883"/>
		<node id="153" x="4352.4913" y="-794.5239"/>
		<node id="154" x="4425.2212" y="-1362.9485"/>
		<node id="155" x="4163.9014" y="-1665.433"/>
		<node id="156" x="4357.3695" y="-1706.4735"/>
		<node id="157" x="4875.2867" y="-824.284"/>
		<node id="158" x="4801.7724" y="-1177.5112"/>
		<node id="159" x="4740.8093" y="-1505.636"/>
		<node id="160" x="4685.2253" y="-1771.0047"/>
		<node id="161" x="5036.1575" y="-1573.5919"/>
		<node id="162" x="4963.1453" y="-1824.7957"/>
		<node id="163" x="4645.7786" y="-1961.0661"/>
		<node id="164" x="6223.5498" y="-2334.737"/>
		<node id="165" x="5333.9819" y="-1235.7767"/>
		<node id="166" x="5610.6972" y="-496.0916"/>
		<node id="167" x="5133.7227" y="-1253.3148"/>
		<node id="169" x="5795.8837" y="-3741.4614"/>
		<node id="170" x="5365.891" y="-5163.0934"/>
		<node id="171" x="5430.3281" y="-5107.0612"/>
		<node id="172" x="5508.7732" y="-5037.0209"/>
		<node id="173" x="5529.0849" y="-5342.0464"/>
		<node id="174" x="5637.6474" y="-5289.5162"/>
		<node id="175" x="5700.6836" y="-5254.496"/>
		<node id="176" x="4974.2256" y="-5490.882"/>
		<node id="177" x="3068.3065" y="-5036.7407"/>
		<node id="178" x="3478.4625" y="-5343.7974"/>
		<node id="179" x="3778.7953" y="-5650.8541"/>
		<node id="180" x="1397.0049" y="-3159.6038"/>
		<node id="181" x="1882.4682" y="-3780.6091"/>
		<node id="182" x="1932.6731" y="-3400.4864"/>
		<node id="183" x="1085.9139" y="-3894.4667"/>
		<node id="184" x="1388.5776" y="-4039.3436"/>
		<node id="185" x="1305.3809" y="-3857.1716"/>
		<node id="186" x="1761.2144" y="-1319.2512"/>
		<node id="187" x="1873.2789" y="-1134.3448"/>
		<node id="188" x="1621.1338" y="-1576.9995"/>
		<node id="189" x="1811.6434" y="-1649.8414"/>
		<node id="190" x="1820.0483" y="-1854.3591"/>
		<node id="191" x="1996.5498" y="-1935.6058"/>
		<node id="192" x="2141.5332" y="-1461.0828"/>
		<node id="193" x="2645.8234" y="-1671.2037"/>
		<node id="194" x="2368.7265" y="-676.0186"/>
		<node id="195" x="2828.1908" y="-628.3912"/>
		<node id="196" x="2971.073" y="-869.3298"/>
		<node id="197" x="5040.3809" y="-2768.4835"/>
		<node id="198" x="4921.3124" y="-3241.2555"/>
		<node id="199" x="4613.1351" y="-3115.183"/>
		<node id="200" x="5099.9151" y="-2561.8646"/>
		<node id="201" x="3403.1123" y="-4821.641"/>
		<node id="202" x="3146.0644" y="-3809.9089"/>
		<node id="203" x="3580.3142" y="-3662.8242"/>
		<node id="204" x="3727.3989" y="-3953.4915"/>
		<node id="205" x="3877.9855" y="-3876.4471"/>
		<node id="206" x="3807.9452" y="-3683.8363"/>
		<node id="207" x="3469.4589" y="-3813.1033"/>
		<node id="208" x="3490.1864" y="-3868.3645"/>
		<node id="209" x="3640.801" y="-3810.9875"/>
		<node id="210" x="3827.2763" y="-3735.6801"/>
		<node id="212" x="2254.7195" y="-3482.6469"/>
		<node id="213" x="2312.7228" y="-3359.1399"/>
		<node id="214" x="2193.716" y="-3377.6409"/>
		<node id="215" x="2581.7863" y="3406.2142"/>
		<node id="216" x="10357.8981" y="-5179.3071"/>
		<node id="217" x="-2650.4674" y="-4919.1398"/>
		<node id="218" x="7293.7053" y="-13215.5862"/>
		<node id="219" x="-3720.0441" y="-6566.8661"/>
		<node id="220" x="-4934.1583" y="-4369.8977"/>
		<node id="221" x="8623.4494" y="-14892.22"/>
		<node id="222" x="5935.0538" y="-15181.2948"/>
		<node id="223" x="12497.0515" y="-4109.7304"/>
		<node id="224" x="12641.5889" y="-6335.6062"/>
		<node id="225" x="3882.6228" y="4851.5881"/>
		<node id="226" x="1165.3198" y="4967.218"/>
	</nodes>
	<links capperiod="01:00:00">
		<link id="1" from="92" to="101" length="209" freespeed="12.5" capacity="600" permlanes="1"/>
		<link id="2" from="101" to="92" length="209" freespeed="12.5" capacity="600" permlanes="1"/>
		<link id="3" from="44" to="101" length="310" freespeed="9.72222222222222" capacity="300" permlanes="1"/>
		<link id="4" from="101" to="44" length="310" freespeed="9.72222222222222" capacity="300" permlanes="1"/>
		<link id="5" from="19" to="33" length="352" freespeed="16.6666666666667" capacity="900" permlanes="1"/>
		<link id="6" from="33" to="19" length="352" freespeed="16.6666666666667" capacity="900" permlanes="1"/>
		<link id="7" from="33" to="92" length="431" freespeed="12.5" capacity="600" permlanes="1"/>
		<link id="8" from="92" to="33" length="431" freespeed="12.5" capacity="600" permlanes="1"/>
		<link id="9" from="15" to="92" length="378" freespeed="12.5" capacity="600" permlanes="1"/>
		<link id="10" from="92" to="15" length="378" freespeed="12.5" capacity="600" permlanes="1"/>
		<link id="11" from="20" to="92" length="412" freespeed="12.5" capacity="600" permlanes="1"/>
		<link id="12" from="92" to="20" length="412" freespeed="12.5" capacity="600" permlanes="1"/>
		<link id="13" from="20" to="101" length="463" freespeed="12.5" capacity="600" permlanes="1"/>
		<link id="14" from="101" to="20" length="463" freespeed="12.5" capacity="600" permlanes="1"/>
		<link id="15" from="15" to="19" length="239" freespeed="12.5" capacity="600" permlanes="1"/>
		<link id="16" from="19" to="15" length="239" freespeed="12.5" capacity="600" permlanes="1"/>
		<link id="17" from="18" to="44" length="163" freespeed="12.5" capacity="600" permlanes="1"/>
		<link id="18" from="44" to="18" length="163" freespeed="12.5" capacity="600" permlanes="1"/>
		<link id="19" from="17" to="18" length="126" freespeed="16.6666666666667" capacity="900" permlanes="1"/>
		<link id="20" from="18" to="17" length="126" freespeed="16.6666666666667" capacity="900" permlanes="1"/>
		<link id="21" from="17" to="45" length="554" freespeed="16.6666666666667" capacity="900" permlanes="1"/>
		<link id="22" from="45" to="17" length="554" freespeed="16.6666666666667" capacity="900" permlanes="1"/>
		<link id="23" from="13" to="96" length="276" freespeed="12.5" capacity="600" permlanes="1"/>
		<link id="24" from="96" to="13" length="276" freespeed="12.5" capacity="600" permlanes="1"/>
		<link id="25" from="16" to="45" length="483" freespeed="16.6666666666667" capacity="900" permlanes="1"/>
		<link id="26" from="45" to="16" length="483" freespeed="16.6666666666667" capacity="900" permlanes="1"/>
		<link id="27" from="8" to="62" length="630" freespeed="12.5" capacity="600" permlanes="1"/>
		<link id="28" from="62" to="8" length="630" freespeed="12.5" capacity="600" permlanes="1"/>
		<link id="29" from="61" to="62" length="450" freespeed="12.5" capacity="600" permlanes="1"/>
		<link id="30" from="62" to="61" length="450" freespeed="12.5" capacity="600" permlanes="1"/>
		<link id="31" from="62" to="63" length="505" freespeed="12.5" capacity="600" permlanes="1"/>
		<link id="32" from="63" to="62" length="505" freespeed="12.5" capacity="600" permlanes="1"/>
		<link id="33" from="3" to="63" length="362" freespeed="12.5" capacity="600" permlanes="1"/>
		<link id="34" from="63" to="3" length="362" freespeed="12.5" capacity="600" permlanes="1"/>
		<link id="35" from="3" to="61" length="567" freespeed="12.5" capacity="600" permlanes="1"/>
		<link id="36" from="61" to="3" length="567" freespeed="12.5" capacity="600" permlanes="1"/>
		<link id="37" from="3" to="4" length="432" freespeed="12.5" capacity="600" permlanes="1"/>
		<link id="38" from="4" to="3" length="432" freespeed="12.5" capacity="600" permlanes="1"/>
		<link id="39" from="30" to="61" length="424" freespeed="12.5" capacity="600" permlanes="1"/>
		<link id="40" from="61" to="30" length="424" freespeed="12.5" capacity="600" permlanes="1"/>
		<link id="41" from="5" to="30" length="712" freespeed="16.6666666666667" capacity="900" permlanes="1"/>
		<link id="42" from="30" to="5" length="712" freespeed="16.6666666666667" capacity="900" permlanes="1"/>
		<link id="43" from="5" to="57" length="356" freespeed="12.5" capacity="600" permlanes="1"/>
		<link id="44" from="57" to="5" length="356" freespeed="12.5" capacity="600" permlanes="1"/>
		<link id="45" from="4" to="57" length="523" freespeed="12.5" capacity="600" permlanes="1"/>
		<link id="46" from="57" to="4" length="523" freespeed="12.5" capacity="600" permlanes="1"/>
		<link id="47" from="57" to="65" length="241" freespeed="12.5" capacity="600" permlanes="1"/>
		<link id="48" from="65" to="57" length="241" freespeed="12.5" capacity="600" permlanes="1"/>
		<link id="49" from="64" to="65" length="196" freespeed="12.5" capacity="600" permlanes="1"/>
		<link id="50" from="65" to="64" length="196" freespeed="12.5" capacity="600" permlanes="1"/>
		<link id="51" from="3" to="65" length="384" freespeed="12.5" capacity="600" permlanes="1"/>
		<link id="52" from="65" to="3" length="384" freespeed="12.5" capacity="600" permlanes="1"/>
		<link id="53" from="30" to="64" length="423" freespeed="12.5" capacity="600" permlanes="1"/>
		<link id="54" from="64" to="30" length="423" freespeed="12.5" capacity="600" permlanes="1"/>
		<link id="55" from="30" to="69" length="1014" freespeed="12.5" capacity="600" permlanes="1"/>
		<link id="56" from="69" to="30" length="1014" freespeed="12.5" capacity="600" permlanes="1"/>
		<link id="57" from="31" to="69" length="741" freespeed="12.5" capacity="600" permlanes="1"/>
		<link id="58" from="69" to="31" length="741" freespeed="12.5" capacity="600" permlanes="1"/>
		<link id="59" from="70" to="71" length="204" freespeed="12.5" capacity="600" permlanes="1"/>
		<link id="60" from="71" to="70" length="204" freespeed="12.5" capacity="600" permlanes="1"/>
		<link id="61" from="66" to="67" length="261" freespeed="12.5" capacity="600" permlanes="1"/>
		<link id="62" from="67" to="66" length="261" freespeed="12.5" capacity="600" permlanes="1"/>
		<link id="63" from="56" to="68" length="433" freespeed="12.5" capacity="600" permlanes="1"/>
		<link id="64" from="68" to="56" length="433" freespeed="12.5" capacity="600" permlanes="1"/>
		<link id="65" from="5" to="56" length="75" freespeed="12.5" capacity="600" permlanes="1"/>
		<link id="66" from="56" to="5" length="75" freespeed="12.5" capacity="600" permlanes="1"/>
		<link id="67" from="56" to="66" length="513" freespeed="12.5" capacity="600" permlanes="1"/>
		<link id="68" from="66" to="56" length="513" freespeed="12.5" capacity="600" permlanes="1"/>
		<link id="69" from="5" to="72" length="241" freespeed="12.5" capacity="600" permlanes="1"/>
		<link id="70" from="72" to="5" length="241" freespeed="12.5" capacity="600" permlanes="1"/>
		<link id="71" from="67" to="71" length="297" freespeed="12.5" capacity="600" permlanes="1"/>
		<link id="72" from="71" to="67" length="297" freespeed="12.5" capacity="600" permlanes="1"/>
		<link id="73" from="52" to="93" length="250" freespeed="12.5" capacity="600" permlanes="1"/>
		<link id="74" from="93" to="52" length="250" freespeed="12.5" capacity="600" permlanes="1"/>
		<link id="75" from="21" to="93" length="344" freespeed="16.6666666666667" capacity="900" permlanes="1"/>
		<link id="76" from="93" to="21" length="344" freespeed="16.6666666666667" capacity="900" permlanes="1"/>
		<link id="77" from="21" to="91" length="282" freespeed="16.6666666666667" capacity="900" permlanes="1"/>
		<link id="78" from="91" to="21" length="282" freespeed="16.6666666666667" capacity="900" permlanes="1"/>
		<link id="79" from="90" to="91" length="311" freespeed="16.6666666666667" capacity="900" permlanes="1"/>
		<link id="80" from="91" to="90" length="311" freespeed="16.6666666666667" capacity="900" permlanes="1"/>
		<link id="81" from="22" to="24" length="175" freespeed="16.6666666666667" capacity="900" permlanes="1"/>
		<link id="82" from="24" to="22" length="175" freespeed="16.6666666666667" capacity="900" permlanes="1"/>
		<link id="83" from="22" to="26" length="126" freespeed="16.6666666666667" capacity="900" permlanes="1"/>
		<link id="84" from="26" to="22" length="126" freespeed="16.6666666666667" capacity="900" permlanes="1"/>
		<link id="85" from="26" to="27" length="76" freespeed="16.6666666666667" capacity="900" permlanes="1"/>
		<link id="86" from="27" to="26" length="76" freespeed="16.6666666666667" capacity="900" permlanes="1"/>
		<link id="87" from="7" to="23" length="269" freespeed="16.6666666666667" capacity="900" permlanes="1"/>
		<link id="88" from="23" to="7" length="269" freespeed="16.6666666666667" capacity="900" permlanes="1"/>
		<link id="89" from="6" to="7" length="112" freespeed="16.6666666666667" capacity="900" permlanes="1"/>
		<link id="90" from="7" to="6" length="112" freespeed="16.6666666666667" capacity="900" permlanes="1"/>
		<link id="91" from="10" to="37" length="292" freespeed="16.6666666666667" capacity="900" permlanes="1"/>
		<link id="92" from="37" to="10" length="292" freespeed="16.6666666666667" capacity="900" permlanes="1"/>
		<link id="93" from="10" to="11" length="466" freespeed="16.6666666666667" capacity="900" permlanes="1"/>
		<link id="94" from="11" to="10" length="466" freespeed="16.6666666666667" capacity="900" permlanes="1"/>
		<link id="95" from="14" to="15" length="294" freespeed="16.6666666666667" capacity="900" permlanes="1"/>
		<link id="96" from="15" to="14" length="294" freespeed="16.6666666666667" capacity="900" permlanes="1"/>
		<link id="97" from="37" to="38" length="179" freespeed="16.6666666666667" capacity="900" permlanes="1"/>
		<link id="98" from="38" to="37" length="179" freespeed="16.6666666666667" capacity="900" permlanes="1"/>
		<link id="99" from="21" to="33" length="418" freespeed="16.6666666666667" capacity="900" permlanes="1"/>
		<link id="100" from="33" to="21" length="418" freespeed="16.6666666666667" capacity="900" permlanes="1"/>
		<link id="101" from="58" to="59" length="359" freespeed="16.6666666666667" capacity="900" permlanes="1"/>
		<link id="102" from="59" to="58" length="359" freespeed="16.6666666666667" capacity="900" permlanes="1"/>
		<link id="103" from="26" to="89" length="139" freespeed="9.72222222222222" capacity="300" permlanes="1"/>
		<link id="104" from="89" to="26" length="139" freespeed="9.72222222222222" capacity="300" permlanes="1"/>
		<link id="105" from="88" to="89" length="82" freespeed="9.72222222222222" capacity="300" permlanes="1"/>
		<link id="106" from="89" to="88" length="82" freespeed="9.72222222222222" capacity="300" permlanes="1"/>
		<link id="107" from="27" to="88" length="132" freespeed="9.72222222222222" capacity="300" permlanes="1"/>
		<link id="108" from="88" to="27" length="132" freespeed="9.72222222222222" capacity="300" permlanes="1"/>
		<link id="109" from="85" to="88" length="122" freespeed="9.72222222222222" capacity="300" permlanes="1"/>
		<link id="110" from="88" to="85" length="122" freespeed="9.72222222222222" capacity="300" permlanes="1"/>
		<link id="111" from="25" to="85" length="111" freespeed="9.72222222222222" capacity="300" permlanes="1"/>
		<link id="112" from="85" to="25" length="111" freespeed="9.72222222222222" capacity="300" permlanes="1"/>
		<link id="113" from="25" to="89" length="110" freespeed="9.72222222222222" capacity="300" permlanes="1"/>
		<link id="114" from="89" to="25" length="110" freespeed="9.72222222222222" capacity="300" permlanes="1"/>
		<link id="115" from="25" to="53" length="272" freespeed="9.72222222222222" capacity="300" permlanes="1"/>
		<link id="116" from="53" to="25" length="272" freespeed="9.72222222222222" capacity="300" permlanes="1"/>
		<link id="117" from="53" to="55" length="104" freespeed="9.72222222222222" capacity="300" permlanes="1"/>
		<link id="118" from="55" to="53" length="104" freespeed="9.72222222222222" capacity="300" permlanes="1"/>
		<link id="119" from="24" to="55" length="144" freespeed="9.72222222222222" capacity="300" permlanes="1"/>
		<link id="120" from="55" to="24" length="144" freespeed="9.72222222222222" capacity="300" permlanes="1"/>
		<link id="121" from="82" to="83" length="144" freespeed="9.72222222222222" capacity="300" permlanes="1"/>
		<link id="122" from="83" to="82" length="144" freespeed="9.72222222222222" capacity="300" permlanes="1"/>
		<link id="123" from="82" to="85" length="144" freespeed="9.72222222222222" capacity="300" permlanes="1"/>
		<link id="124" from="85" to="82" length="144" freespeed="9.72222222222222" capacity="300" permlanes="1"/>
		<link id="125" from="25" to="83" length="137" freespeed="9.72222222222222" capacity="300" permlanes="1"/>
		<link id="126" from="83" to="25" length="137" freespeed="9.72222222222222" capacity="300" permlanes="1"/>
		<link id="127" from="85" to="86" length="222" freespeed="9.72222222222222" capacity="300" permlanes="1"/>
		<link id="128" from="86" to="85" length="222" freespeed="9.72222222222222" capacity="300" permlanes="1"/>
		<link id="129" from="23" to="86" length="241" freespeed="9.72222222222222" capacity="300" permlanes="1"/>
		<link id="130" from="86" to="23" length="241" freespeed="9.72222222222222" capacity="300" permlanes="1"/>
		<link id="131" from="24" to="29" length="236" freespeed="9.72222222222222" capacity="300" permlanes="1"/>
		<link id="132" from="29" to="24" length="236" freespeed="9.72222222222222" capacity="300" permlanes="1"/>
		<link id="133" from="29" to="48" length="171" freespeed="9.72222222222222" capacity="300" permlanes="1"/>
		<link id="134" from="48" to="29" length="171" freespeed="9.72222222222222" capacity="300" permlanes="1"/>
		<link id="135" from="22" to="48" length="239" freespeed="9.72222222222222" capacity="300" permlanes="1"/>
		<link id="136" from="48" to="22" length="239" freespeed="9.72222222222222" capacity="300" permlanes="1"/>
		<link id="137" from="48" to="49" length="120" freespeed="9.72222222222222" capacity="300" permlanes="1"/>
		<link id="138" from="49" to="48" length="120" freespeed="9.72222222222222" capacity="300" permlanes="1"/>
		<link id="139" from="49" to="50" length="163" freespeed="9.72222222222222" capacity="300" permlanes="1"/>
		<link id="140" from="50" to="49" length="163" freespeed="9.72222222222222" capacity="300" permlanes="1"/>
		<link id="141" from="29" to="50" length="134" freespeed="9.72222222222222" capacity="300" permlanes="1"/>
		<link id="142" from="50" to="29" length="134" freespeed="9.72222222222222" capacity="300" permlanes="1"/>
		<link id="143" from="28" to="49" length="144" freespeed="9.72222222222222" capacity="300" permlanes="1"/>
		<link id="144" from="49" to="28" length="144" freespeed="9.72222222222222" capacity="300" permlanes="1"/>
		<link id="145" from="28" to="59" length="300" freespeed="12.5" capacity="600" permlanes="1"/>
		<link id="146" from="59" to="28" length="300" freespeed="12.5" capacity="600" permlanes="1"/>
		<link id="147" from="6" to="32" length="925" freespeed="9.72222222222222" capacity="300" permlanes="1"/>
		<link id="148" from="32" to="6" length="925" freespeed="9.72222222222222" capacity="300" permlanes="1"/>
		<link id="149" from="1" to="6" length="796" freespeed="9.72222222222222" capacity="300" permlanes="1"/>
		<link id="150" from="6" to="1" length="796" freespeed="9.72222222222222" capacity="300" permlanes="1"/>
		<link id="151" from="1" to="2" length="110" freespeed="9.72222222222222" capacity="300" permlanes="1"/>
		<link id="152" from="2" to="1" length="110" freespeed="9.72222222222222" capacity="300" permlanes="1"/>
		<link id="153" from="2" to="6" length="743" freespeed="9.72222222222222" capacity="300" permlanes="1"/>
		<link id="154" from="6" to="2" length="743" freespeed="9.72222222222222" capacity="300" permlanes="1"/>
		<link id="155" from="77" to="79" length="254" freespeed="9.72222222222222" capacity="300" permlanes="1"/>
		<link id="156" from="79" to="77" length="254" freespeed="9.72222222222222" capacity="300" permlanes="1"/>
		<link id="157" from="77" to="78" length="250" freespeed="9.72222222222222" capacity="300" permlanes="1"/>
		<link id="158" from="78" to="77" length="250" freespeed="9.72222222222222" capacity="300" permlanes="1"/>
		<link id="159" from="78" to="80" length="350" freespeed="9.72222222222222" capacity="300" permlanes="1"/>
		<link id="160" from="80" to="78" length="350" freespeed="9.72222222222222" capacity="300" permlanes="1"/>
		<link id="161" from="79" to="80" length="323" freespeed="9.72222222222222" capacity="300" permlanes="1"/>
		<link id="162" from="80" to="79" length="323" freespeed="9.72222222222222" capacity="300" permlanes="1"/>
		<link id="163" from="80" to="81" length="301" freespeed="9.72222222222222" capacity="300" permlanes="1"/>
		<link id="164" from="81" to="80" length="301" freespeed="9.72222222222222" capacity="300" permlanes="1"/>
		<link id="165" from="34" to="76" length="217" freespeed="9.72222222222222" capacity="300" permlanes="1"/>
		<link id="166" from="76" to="34" length="217" freespeed="9.72222222222222" capacity="300" permlanes="1"/>
		<link id="167" from="81" to="84" length="291" freespeed="9.72222222222222" capacity="300" permlanes="1"/>
		<link id="168" from="84" to="81" length="291" freespeed="9.72222222222222" capacity="300" permlanes="1"/>
		<link id="169" from="83" to="102" length="261" freespeed="9.72222222222222" capacity="300" permlanes="1"/>
		<link id="170" from="102" to="83" length="261" freespeed="9.72222222222222" capacity="300" permlanes="1"/>
		<link id="171" from="53" to="102" length="145" freespeed="9.72222222222222" capacity="300" permlanes="1"/>
		<link id="172" from="102" to="53" length="145" freespeed="9.72222222222222" capacity="300" permlanes="1"/>
		<link id="173" from="83" to="84" length="315" freespeed="9.72222222222222" capacity="300" permlanes="1"/>
		<link id="174" from="84" to="83" length="315" freespeed="9.72222222222222" capacity="300" permlanes="1"/>
		<link id="175" from="17" to="47" length="188" freespeed="9.72222222222222" capacity="300" permlanes="1"/>
		<link id="176" from="47" to="17" length="188" freespeed="9.72222222222222" capacity="300" permlanes="1"/>
		<link id="177" from="44" to="47" length="141" freespeed="9.72222222222222" capacity="300" permlanes="1"/>
		<link id="178" from="47" to="44" length="141" freespeed="9.72222222222222" capacity="300" permlanes="1"/>
		<link id="179" from="95" to="96" length="95" freespeed="9.72222222222222" capacity="300" permlanes="1"/>
		<link id="180" from="96" to="95" length="95" freespeed="9.72222222222222" capacity="300" permlanes="1"/>
		<link id="181" from="40" to="95" length="188" freespeed="9.72222222222222" capacity="300" permlanes="1"/>
		<link id="182" from="95" to="40" length="188" freespeed="9.72222222222222" capacity="300" permlanes="1"/>
		<link id="183" from="11" to="94" length="275" freespeed="9.72222222222222" capacity="300" permlanes="1"/>
		<link id="184" from="94" to="11" length="275" freespeed="9.72222222222222" capacity="300" permlanes="1"/>
		<link id="185" from="97" to="98" length="171" freespeed="9.72222222222222" capacity="300" permlanes="1"/>
		<link id="186" from="98" to="97" length="171" freespeed="9.72222222222222" capacity="300" permlanes="1"/>
		<link id="187" from="41" to="97" length="198" freespeed="9.72222222222222" capacity="300" permlanes="1"/>
		<link id="188" from="97" to="41" length="198" freespeed="9.72222222222222" capacity="300" permlanes="1"/>
		<link id="189" from="13" to="41" length="205" freespeed="9.72222222222222" capacity="300" permlanes="1"/>
		<link id="190" from="41" to="13" length="205" freespeed="9.72222222222222" capacity="300" permlanes="1"/>
		<link id="191" from="41" to="46" length="348" freespeed="9.72222222222222" capacity="300" permlanes="1"/>