<?xml version="1.0" encoding="UTF-8"?>
<!DOCTYPE network SYSTEM "http://www.matsim.org/files/dtd/network_v2.dtd">
<network name="test network">

	<attributes>
		<attribute name="coordinateReferenceSystem" class="java.lang.String">Atlantis</attribute>
	</attributes>
	<!-- ====================================================================== -->

	<!--
	A - B - C - D - E
	Links:
	- AB: Capacity 3
	- BC: Capacity 3
	- CD: Capacity 1
	- DE: Capacity 10
	-->

	<nodes>
		<node id="A" x="0.0" y="0.0"/>
		<node id="B" x="10000.0" y="0.0"/>
		<node id="C" x="20000.0" y="0.0"/>
		<node id="D" x="30000.0" y="0.0"/>
		<node id="E" x="40000.0" y="0.0"/>
	</nodes>

	<!-- ====================================================================== -->

	<links>
		<link id="link_A-B" from="A" to="B" length="10000.0" freespeed="22.222" capacity="3600.0" permlanes="1.0" oneway="1" modes="rail">
			<attributes>
				<attribute name="railsimTrainCapacity" class="java.lang.Integer">3</attribute>
			</attributes>
		</link>
		<link id="link_B-C" from="B" to="C" length="10000.0" freespeed="22.222" capacity="3600.0" permlanes="1.0" oneway="1" modes="rail">
			<attributes>
				<attribute name="railsimTrainCapacity" class="java.lang.Integer">3</attribute>
			</attributes>
		</link>
		<link id="link_C-D" from="C" to="D" length="10000.0" freespeed="22.222" capacity="3600.0" permlanes="1.0" oneway="1" modes="rail">
			<attributes>
				<attribute name="railsimTrainCapacity" class="java.lang.Integer">1</attribute>
			</attributes>
		</link>
		<link id="link_D-E" from="D" to="E" length="10000.0" freespeed="22.222" capacity="3600.0" permlanes="1.0" oneway="1" modes="rail">
			<attributes>
				<attribute name="railsimTrainCapacity" class="java.lang.Integer">10</attribute>
			</attributes>
		</link>
	</links>

	<!-- ====================================================================== -->

</network>
