<?xml version="1.0" encoding="UTF-8"?>
<!DOCTYPE transitSchedule SYSTEM "http://www.matsim.org/files/dtd/transitSchedule_v2.dtd">

<transitSchedule>

	<transitStops>
		<stopFacility id="stop_A" x="0" y="0" linkRefId="link_A-B" isBlocking="false">
		</stopFacility>
		<stopFacility id="stop_B" x="10000" y="0" linkRefId="link_B-C" isBlocking="false">
		</stopFacility>
		<stopFacility id="stop_C" x="20000" y="0" linkRefId="link_C-D" isBlocking="false">
		</stopFacility>
		<stopFacility id="stop_D" x="30000" y="0" linkRefId="link_C-D" isBlocking="false">
		</stopFacility>
	</transitStops>

	<transitLine id="line1">
		<transitRoute id="line1_route1">
			<transportMode>rail</transportMode>
			<routeProfile>
				<stop refId="stop_A" departureOffset="00:00:00" awaitDeparture="true"/>
				<stop refId="stop_B" arrivalOffset="00:08:00" departureOffset="00:10:00" awaitDeparture="true" minimumStopDuration="60"/>
				<stop refId="stop_C" arrivalOffset="00:18:00" departureOffset="00:20:00" awaitDeparture="true" minimumStopDuration="60"/>
				<stop refId="stop_D" arrivalOffset="00:28:00"/>
			</routeProfile>
			<route>
				<link refId="link_A-B"/>
				<link refId="link_B-C"/>
				<link refId="link_C-D"/>
				<link refId="link_D-E"/>
			</route>
			<departures>
				<departure id="1" departureTime="08:00:00" vehicleRefId="train1"/>
				<departure id="2" departureTime="08:05:00" vehicleRefId="train2"/>
				<departure id="3" departureTime="08:10:00" vehicleRefId="train3"/>
				<departure id="4" departureTime="08:15:00" vehicleRefId="train4"/>
				<departure id="5" departureTime="08:20:00" vehicleRefId="train5"/>
				<departure id="6" departureTime="08:25:00" vehicleRefId="train6"/>
				<departure id="7" departureTime="08:30:00" vehicleRefId="train7"/>
				<departure id="8" departureTime="08:35:00" vehicleRefId="train8"/>
				<departure id="9" departureTime="08:40:00" vehicleRefId="train9"/>
			</departures>
		</transitRoute>
	</transitLine>
</transitSchedule>
