<?xml version="1.0" encoding="UTF-8"?>
<!DOCTYPE network SYSTEM "http://www.matsim.org/files/dtd/network_v1.dtd">
<network>

<!-- ====================================================================== -->

	<nodes>
		<node id="1" x="0.0" y="0.0"/>
		<node id="2" x="1000.0" y="0.0"/>
		<node id="3" x="2000.0" y="0.0"/>
		<node id="4" x="3000.0" y="500.0"/>
		<node id="5" x="3000.0" y="0.0"/>
		<node id="6" x="3000.0" y="-500.0"/>
		<node id="7" x="4000.0" y="0.0"/>
		<node id="8" x="5000.0" y="0.0"/>
	</nodes>

<!-- ====================================================================== -->

	<links capperiod="01:00:00" effectivecellsize="7.5">
		<link id="12" from="1" to="2" length="1000.0" freespeed="10.0" capacity="3600.0" permlanes="1.0" oneway="1" modes="car" />
		<link id="23" from="2" to="3" length="1000.0" freespeed="10.0" capacity="3600.0" permlanes="6.0" oneway="1" modes="car" />
		<link id="34" from="3" to="4" length="1000.0" freespeed="10.0" capacity="3600.0" permlanes="1.0" oneway="1" modes="car" />
		<link id="35" from="3" to="5" length="1000.0" freespeed="10.0" capacity="3600.0" permlanes="1.0" oneway="1" modes="car" />
		<link id="36" from="3" to="6" length="1000.0" freespeed="10.0" capacity="3600.0" permlanes="1.0" oneway="1" modes="car" />
		<link id="47" from="4" to="7" length="1000.0" freespeed="10.0" capacity="3600.0" permlanes="1.0" oneway="1" modes="car" />
		<link id="57" from="5" to="7" length="1000.0" freespeed="10.0" capacity="3600.0" permlanes="1.0" oneway="1" modes="car" />
		<link id="67" from="6" to="7" length="1000.0" freespeed="10.0" capacity="3600.0" permlanes="1.0" oneway="1" modes="car" />
		<link id="78" from="7" to="8" length="1000.0" freespeed="10.0" capacity="3600.0" permlanes="1.0" oneway="1" modes="car" />
	</links>

<!-- ====================================================================== -->

</network>
