<?xml version="1.0" encoding="UTF-8"?>
<!DOCTYPE network SYSTEM "http://www.matsim.org/files/dtd/network_v2.dtd">
<network>

<!-- ====================================================================== -->

	<nodes>
		<node id="100001179_pt" x="1061588.0" y="6014496.0" >
		</node>
		<node id="100001183_pt" x="1045007.0" y="6007865.0" >
		</node>
		<node id="100001188_pt" x="824468.0" y="5927225.0" >
		</node>
		<node id="1140_pt" x="895310.0" y="5999463.0" >
		</node>
		<node id="1141_pt" x="896934.0" y="5999974.0" >
		</node>
		<node id="1152_pt" x="989902.0" y="6015406.0" >
		</node>
		<node id="1158_pt" x="836616.0" y="5940182.0" >
		</node>
		<node id="1173_pt" x="1012978.0" y="6008868.0" >
		</node>
		<node id="1175_pt" x="711592.0" y="5850341.0" >
		</node>
		<node id="1182_pt" x="1062636.0" y="5996657.0" >
		</node>
		<node id="1193_pt" x="730106.0" y="5861279.0" >
		</node>
		<node id="1210_pt" x="1072086.0" y="6006823.0" >
		</node>
		<node id="1311_pt" x="827212.0" y="5927195.0" >
		</node>
		<node id="1313_pt" x="823523.0" y="5926333.0" >
		</node>
		<node id="1315_pt" x="822353.0" y="5925257.0" >
		</node>
		<node id="1321_pt" x="1001716.0" y="5968815.0" >
		</node>
		<node id="1328_pt" x="829604.0" y="5929986.0" >
		</node>
		<node id="1350_pt" x="744931.0" y="5855856.0" >
		</node>
		<node id="1358_pt" x="855956.0" y="5919120.0" >
		</node>
		<node id="1374_pt" x="1015254.0" y="5990660.0" >
		</node>
		<node id="1391_pt" x="959145.0" y="6007215.0" >
		</node>
		<node id="1402_pt" x="1053976.0" y="5962927.0" >
		</node>
		<node id="1457_pt" x="689437.0" y="5829753.0" >
		</node>
		<node id="1482_pt" x="778413.0" y="5894631.0" >
		</node>
		<node id="1498_pt" x="678580.0" y="5808706.0" >
		</node>
		<node id="1510_pt" x="683555.0" y="5812772.0" >
		</node>
		<node id="1540_pt" x="688044.0" y="5824833.0" >
		</node>
		<node id="1548_pt" x="782234.0" y="5894956.0" >
		</node>
		<node id="1556_pt" x="690784.0" y="5831497.0" >
		</node>
		<node id="1565_pt" x="685108.0" y="5816204.0" >
		</node>
		<node id="1579_pt" x="742571.0" y="5856395.0" >
		</node>
		<node id="1600_pt" x="727272.0" y="5858987.0" >
		</node>
		<node id="1606_pt" x="1023004.0" y="5996384.0" >
		</node>
		<node id="1613_pt" x="887198.0" y="5993727.0" >
		</node>
		<node id="1627_pt" x="897081.0" y="5940034.0" >
		</node>
		<node id="1629_pt" x="957339.0" y="6008017.0" >
		</node>
		<node id="1639_pt" x="934638.0" y="6001857.0" >
		</node>
		<node id="1642_pt" x="883537.0" y="5993372.0" >
		</node>
		<node id="1644_pt" x="799480.0" y="5911198.0" >
		</node>
		<node id="1647_pt" x="891416.0" y="5951320.0" >
		</node>
		<node id="1661_pt" x="965895.0" y="6004996.0" >
		</node>
		<node id="1677_pt" x="985565.0" y="6017117.0" >
		</node>
		<node id="1680_pt" x="861459.0" y="5926976.0" >
		</node>
		<node id="1686_pt" x="896493.0" y="5934397.0" >
		</node>
		<node id="1696_pt" x="882484.0" y="5921634.0" >
		</node>
		<node id="1698_pt" x="996143.0" y="6010996.0" >
		</node>
		<node id="1707_pt" x="714594.0" y="5850271.0" >
		</node>
		<node id="1743_pt" x="803585.0" y="5913592.0" >
		</node>
		<node id="1750_pt" x="1021857.0" y="6003384.0" >
		</node>
		<node id="1754_pt" x="813936.0" y="5917232.0" >
		</node>
		<node id="1758_pt" x="1039441.0" y="5951255.0" >
		</node>
		<node id="1759_pt" x="921454.0" y="5944658.0" >
		</node>
		<node id="1764_pt" x="689091.0" y="5827780.0" >
		</node>
		<node id="1773_pt" x="795160.0" y="5903388.0" >
		</node>
		<node id="1784_pt" x="680024.0" y="5807367.0" >
		</node>
		<node id="1803_pt" x="684290.0" y="5815073.0" >
		</node>
		<node id="1805_pt" x="682981.0" y="5807624.0" >
		</node>
		<node id="1806_pt" x="679623.0" y="5811182.0" >
		</node>
		<node id="1816_pt" x="886299.0" y="5958312.0" >
		</node>
		<node id="1826_pt" x="701236.0" y="5845412.0" >
		</node>
		<node id="1837_pt" x="697081.0" y="5841320.0" >
		</node>
		<node id="1844_pt" x="936309.0" y="6000704.0" >
		</node>
		<node id="1847_pt" x="919434.0" y="6005293.0" >
		</node>
		<node id="1852_pt" x="1052671.0" y="6013037.0" >
		</node>
		<node id="1855_pt" x="876678.0" y="5956341.0" >
		</node>
		<node id="1882_pt" x="747525.0" y="5853788.0" >
		</node>
		<node id="1889_pt" x="1028903.0" y="6002811.0" >
		</node>
		<node id="1893_pt" x="922584.0" y="5943907.0" >
		</node>
		<node id="1896_pt" x="866555.0" y="5965102.0" >
		</node>
		<node id="1897_pt" x="834562.0" y="5924671.0" >
		</node>
		<node id="1898_pt" x="1036085.0" y="6000560.0" >
		</node>
		<node id="1900_pt" x="991527.0" y="6013073.0" >
		</node>
		<node id="19045896_pt" x="948281.0" y="5997734.0" >
		</node>
		<node id="19045898_pt" x="943634.0" y="5999640.0" >
		</node>
		<node id="19045903_pt" x="879246.0" y="5992422.0" >
		</node>
		<node id="19045904_pt" x="737612.0" y="5856705.0" >
		</node>
		<node id="19045905_pt" x="752034.0" y="5852876.0" >
		</node>
		<node id="19045911_pt" x="912695.0" y="6001252.0" >
		</node>
		<node id="19045912_pt" x="913655.0" y="6002350.0" >
		</node>
		<node id="19045916_pt" x="871879.0" y="5954130.0" >
		</node>
		<node id="19045928_pt" x="950294.0" y="6002925.0" >
		</node>
		<node id="19045929_pt" x="966039.0" y="6005358.0" >
		</node>
		<node id="19045933_pt" x="1028299.0" y="6002756.0" >
		</node>
		<node id="19045935_pt" x="1056785.0" y="6013645.0" >
		</node>
		<node id="19045940_pt" x="998864.0" y="5971974.0" >
		</node>
		<node id="19045942_pt" x="1053338.0" y="5946470.0" >
		</node>
		<node id="19045958_pt" x="938563.0" y="6000707.0" >
		</node>
		<node id="19045961_pt" x="915468.0" y="6003205.0" >
		</node>
		<node id="19046888_pt" x="923963.0" y="5942634.0" >
		</node>
		<node id="19054275_pt" x="679308.0" y="5807824.0" >
		</node>
		<node id="19054309_pt" x="960535.0" y="6006898.0" >
		</node>
		<node id="19054317_pt" x="923073.0" y="5942661.0" >
		</node>
		<node id="19054346_pt" x="683250.0" y="5809931.0" >
		</node>
		<node id="19054358_pt" x="899216.0" y="6000428.0" >
		</node>
		<node id="19054463_pt" x="826029.0" y="5927025.0" >
		</node>
		<node id="19054465_pt" x="824038.0" y="5926808.0" >
		</node>
		<node id="19054475_pt" x="1052455.0" y="5942239.0" >
		</node>
		<node id="19054495_pt" x="787313.0" y="5900617.0" >
		</node>
		<node id="1914_pt" x="894783.0" y="5931863.0" >
		</node>
		<node id="1924_pt" x="1031533.0" y="5999311.0" >
		</node>
		<node id="1925_pt" x="1070501.0" y="6002596.0" >
		</node>
		<node id="1968_pt" x="879113.0" y="5956476.0" >
		</node>
		<node id="1970_pt" x="963328.0" y="6004577.0" >
		</node>
		<node id="1974_pt" x="872035.0" y="5954130.0" >
		</node>
		<node id="20000010_pt" x="845703.0" y="5897657.0" >
		</node>
		<node id="20000013_pt" x="846050.0" y="5897253.0" >
		</node>
		<node id="20000019_pt" x="933226.0" y="6003746.0" >
		</node>
		<node id="20000026_pt" x="771522.0" y="5888150.0" >
		</node>
		<node id="20000078_pt" x="683392.0" y="5811406.0" >
		</node>
		<node id="20000085_pt" x="951907.0" y="6005555.0" >
		</node>
		<node id="2013_pt" x="1003248.0" y="5971039.0" >
		</node>
		<node id="2024_pt" x="866309.0" y="5959295.0" >
		</node>
		<node id="2025_pt" x="968041.0" y="6009599.0" >
		</node>
		<node id="2029_pt" x="847457.0" y="5915996.0" >
		</node>
		<node id="2035_pt" x="842324.0" y="5906045.0" >
		</node>
		<node id="2049_pt" x="928945.0" y="6006365.0" >
		</node>
		<node id="2093_pt" x="908366.0" y="5999513.0" >
		</node>
		<node id="2119_pt" x="830126.0" y="5933159.0" >
		</node>
		<node id="2123_pt" x="866257.0" y="5960653.0" >
		</node>
		<node id="2130_pt" x="918125.0" y="5944081.0" >
		</node>
		<node id="2137_pt" x="865563.0" y="5925525.0" >
		</node>
		<node id="2147_pt" x="724899.0" y="5857984.0" >
		</node>
		<node id="2152_pt" x="866053.0" y="5966377.0" >
		</node>
		<node id="2157_pt" x="737122.0" y="5856994.0" >
		</node>
		<node id="2163_pt" x="1009984.0" y="5987674.0" >
		</node>
		<node id="2173_pt" x="865641.0" y="5970910.0" >
		</node>
		<node id="2175_pt" x="865108.0" y="5968979.0" >
		</node>
		<node id="2176_pt" x="729016.0" y="5860587.0" >
		</node>
		<node id="2194_pt" x="924002.0" y="5943609.0" >
		</node>
		<node id="2200_pt" x="866842.0" y="5962696.0" >
		</node>
		<node id="2203_pt" x="915712.0" y="6003320.0" >
		</node>
		<node id="2214_pt" x="909786.0" y="5941737.0" >
		</node>
		<node id="2236_pt" x="894107.0" y="5949026.0" >
		</node>
		<node id="2248_pt" x="920305.0" y="6005522.0" >
		</node>
		<node id="2250_pt" x="1047189.0" y="5944250.0" >
		</node>
		<node id="2258_pt" x="1024665.0" y="5953897.0" >
		</node>
		<node id="2261_pt" x="1019992.0" y="5954660.0" >
		</node>
		<node id="2266_pt" x="686026.0" y="5822014.0" >
		</node>
		<node id="2278_pt" x="1046831.0" y="6013181.0" >
		</node>
		<node id="2279_pt" x="1016544.0" y="5994943.0" >
		</node>
		<node id="2281_pt" x="1031534.0" y="5953867.0" >
		</node>
		<node id="2284_pt" x="722111.0" y="5856107.0" >
		</node>
		<node id="2295_pt" x="754558.0" y="5855719.0" >
		</node>
		<node id="2297_pt" x="840556.0" y="5914824.0" >
		</node>
		<node id="2309_pt" x="789076.0" y="5901080.0" >
		</node>
		<node id="2350_pt" x="785596.0" y="5897364.0" >
		</node>
		<node id="2380_pt" x="820296.0" y="5923352.0" >
		</node>
		<node id="2383_pt" x="693393.0" y="5835635.0" >
		</node>
		<node id="2411_pt" x="879315.0" y="5992958.0" >
		</node>
		<node id="2415_pt" x="880259.0" y="5994360.0" >
		</node>
		<node id="2416_pt" x="881007.0" y="5994310.0" >
		</node>
		<node id="2420_pt" x="862184.0" y="5927434.0" >
		</node>
		<node id="2425_pt" x="951184.0" y="6004371.0" >
		</node>
		<node id="2426_pt" x="760264.0" y="5866005.0" >
		</node>
		<node id="2432_pt" x="1064313.0" y="5988328.0" >
		</node>
		<node id="2436_pt" x="831936.0" y="5928385.0" >
		</node>
		<node id="2437_pt" x="913366.0" y="6002087.0" >
		</node>
		<node id="2439_pt" x="818617.0" y="5921447.0" >
		</node>
		<node id="2442_pt" x="760318.0" y="5861231.0" >
		</node>
		<node id="2456_pt" x="707489.0" y="5849647.0" >
		</node>
		<node id="2498_pt" x="694411.0" y="5837498.0" >
		</node>
		<node id="2501_pt" x="685258.0" y="5820005.0" >
		</node>
		<node id="2510_pt" x="752323.0" y="5853248.0" >
		</node>
		<node id="2511_pt" x="740335.0" y="5856653.0" >
		</node>
		<node id="2517_pt" x="1054704.0" y="5959908.0" >
		</node>
		<node id="2518_pt" x="977960.0" y="6017115.0" >
		</node>
		<node id="2527_pt" x="868890.0" y="5957817.0" >
		</node>
		<node id="2532_pt" x="1066448.0" y="6011984.0" >
		</node>
		<node id="2539_pt" x="1065998.0" y="5999679.0" >
		</node>
		<node id="2548_pt" x="731562.0" y="5860299.0" >
		</node>
		<node id="2605_pt" x="704609.0" y="5848291.0" >
		</node>
		<node id="2606_pt" x="768559.0" y="5885596.0" >
		</node>
		<node id="2609_pt" x="785256.0" y="5900056.0" >
		</node>
		<node id="2620_pt" x="1057008.0" y="6013678.0" >
		</node>
		<node id="2622_pt" x="1055168.0" y="6013316.0" >
		</node>
		<node id="2628_pt" x="1060360.0" y="5982279.0" >
		</node>
		<node id="2629_pt" x="876126.0" y="5985554.0" >
		</node>
		<node id="2632_pt" x="903555.0" y="6001423.0" >
		</node>
		<node id="2634_pt" x="839007.0" y="5919001.0" >
		</node>
		<node id="2656_pt" x="1050496.0" y="5942646.0" >
		</node>
		<node id="2676_pt" x="1056619.0" y="5974873.0" >
		</node>
		<node id="2692_pt" x="1005625.0" y="5961159.0" >
		</node>
		<node id="2700_pt" x="1027797.0" y="5998457.0" >
		</node>
		<node id="2701_pt" x="905483.0" y="5941639.0" >
		</node>
		<node id="2705_pt" x="891243.0" y="5927382.0" >
		</node>
		<node id="2707_pt" x="979672.0" y="6017364.0" >
		</node>
		<node id="2708_pt" x="939152.0" y="6000806.0" >
		</node>
		<node id="2714_pt" x="1008327.0" y="6008349.0" >
		</node>
		<node id="2717_pt" x="806599.0" y="5913107.0" >
		</node>
		<node id="2749_pt" x="1055665.0" y="5955891.0" >
		</node>
		<node id="2751_pt" x="1041830.0" y="6004733.0" >
		</node>
		<node id="2753_pt" x="1037409.0" y="6002057.0" >
		</node>
		<node id="2754_pt" x="1044498.0" y="6006590.0" >
		</node>
		<node id="2756_pt" x="1038464.0" y="6002264.0" >
		</node>
		<node id="2760_pt" x="1040728.0" y="6003576.0" >
		</node>
		<node id="2761_pt" x="1034210.0" y="6001544.0" >
		</node>
		<node id="2776_pt" x="859032.0" y="5922332.0" >
		</node>
		<node id="2783_pt" x="1000806.0" y="6011079.0" >
		</node>
		<node id="2786_pt" x="765496.0" y="5879746.0" >
		</node>
		<node id="2789_pt" x="681362.0" y="5806842.0" >
		</node>
		<node id="2799_pt" x="1071725.0" y="6009635.0" >
		</node>
		<node id="2832_pt" x="1060182.0" y="6014128.0" >
		</node>
		<node id="2858_pt" x="723681.0" y="5857209.0" >
		</node>
		<node id="2868_pt" x="717865.0" y="5851455.0" >
		</node>
		<node id="2909_pt" x="687310.0" y="5823263.0" >
		</node>
		<node id="2922_pt" x="848362.0" y="5895538.0" >
		</node>
		<node id="2924_pt" x="847372.0" y="5896463.0" >
		</node>
		<node id="2927_pt" x="818072.0" y="5919966.0" >
		</node>
		<node id="2928_pt" x="817505.0" y="5918089.0" >
		</node>
		<node id="2931_pt" x="842951.0" y="5916254.0" >
		</node>
		<node id="2941_pt" x="968085.0" y="6013024.0" >
		</node>
		<node id="2942_pt" x="719989.0" y="5853770.0" >
		</node>
		<node id="2964_pt" x="1054190.0" y="5947104.0" >
		</node>
		<node id="2968_pt" x="872435.0" y="5922652.0" >
		</node>
		<node id="2972_pt" x="683539.0" y="5813977.0" >
		</node>
		<node id="2990_pt" x="1029110.0" y="5954009.0" >
		</node>
		<node id="3001_pt" x="843150.0" y="5901953.0" >
		</node>
		<node id="3004_pt" x="998606.0" y="5972070.0" >
		</node>
		<node id="3005_pt" x="1015319.0" y="6006877.0" >
		</node>
		<node id="3091_pt" x="761802.0" y="5874046.0" >
		</node>
		<node id="3109_pt" x="791306.0" y="5901225.0" >
		</node>
		<node id="3124_pt" x="685572.0" y="5818783.0" >
		</node>
		<node id="3139_pt" x="773989.0" y="5889986.0" >
		</node>
		<node id="3140_pt" x="970034.0" y="6017382.0" >
		</node>
		<node id="3141_pt" x="1010350.0" y="5984361.0" >
		</node>
		<node id="3148_pt" x="1035555.0" y="5954992.0" >
		</node>
		<node id="3153_pt" x="855551.0" y="5967661.0" >
		</node>
		<node id="3161_pt" x="841173.0" y="5921615.0" >
		</node>
		<node id="3169_pt" x="841590.0" y="5909653.0" >
		</node>
		<node id="3175_pt" x="1056552.0" y="5950356.0" >
		</node>
		<node id="3189_pt" x="973000.0" y="6017200.0" >
		</node>
		<node id="3190_pt" x="898427.0" y="5944477.0" >
		</node>
		<node id="3194_pt" x="878594.0" y="5919114.0" >
		</node>
		<node id="3196_pt" x="1005293.0" y="6011124.0" >
		</node>
		<node id="3208_pt" x="830864.0" y="5929773.0" >
		</node>
		<node id="3209_pt" x="829982.0" y="5930084.0" >
		</node>
		<node id="3214_pt" x="1011285.0" y="5956634.0" >
		</node>
		<node id="3216_pt" x="892676.0" y="5998463.0" >
		</node>
		<node id="3226_pt" x="889247.0" y="5955395.0" >
		</node>
		<node id="3228_pt" x="900885.0" y="5944728.0" >
		</node>
		<node id="3231_pt" x="809572.0" y="5914558.0" >
		</node>
		<node id="3235_pt" x="969338.0" y="6016070.0" >
		</node>
		<node id="3244_pt" x="852073.0" y="5919096.0" >
		</node>
		<node id="3246_pt" x="943928.0" y="5999489.0" >
		</node>
		<node id="3248_pt" x="1007437.0" y="5957666.0" >
		</node>
		<node id="3252_pt" x="881444.0" y="5957777.0" >
		</node>
		<node id="3258_pt" x="952094.0" y="6009169.0" >
		</node>
		<node id="3278_pt" x="950021.0" y="6002810.0" >
		</node>
		<node id="3294_pt" x="947081.0" y="5998276.0" >
		</node>
		<node id="3384_pt" x="877047.0" y="5985937.0" >
		</node>
		<node id="3466_pt" x="897254.0" y="5946111.0" >
		</node>
		<node id="3514_pt" x="874672.0" y="5984751.0" >
		</node>
		<node id="3627_pt" x="760988.0" y="5861744.0" >
		</node>
		<node id="3650_pt" x="795445.0" y="5904779.0" >
		</node>
		<node id="3674_pt" x="830633.0" y="5930563.0" >
		</node>
		<node id="3677_pt" x="836157.0" y="5923408.0" >
		</node>
		<node id="3753_pt" x="879282.0" y="5991974.0" >
		</node>
		<node id="3774_pt" x="904348.0" y="6001594.0" >
		</node>
		<node id="3775_pt" x="907898.0" y="5999728.0" >
		</node>
		<node id="3785_pt" x="911193.0" y="5999707.0" >
		</node>
		<node id="3809_pt" x="928445.0" y="6006673.0" >
		</node>
		<node id="3820_pt" x="945119.0" y="5999199.0" >
		</node>
		<node id="3831_pt" x="949360.0" y="6002219.0" >
		</node>
		<node id="3834_pt" x="950609.0" y="6003479.0" >
		</node>
		<node id="3838_pt" x="951762.0" y="6005292.0" >
		</node>
		<node id="3868_pt" x="970242.0" y="6017846.0" >
		</node>
		<node id="3905_pt" x="1005576.0" y="6009485.0" >
		</node>
		<node id="3908_pt" x="1006898.0" y="5958102.0" >
		</node>
		<node id="3910_pt" x="1007884.0" y="5957286.0" >
		</node>
		<node id="3930_pt" x="1050280.0" y="5942753.0" >
		</node>
		<node id="3933_pt" x="1051170.0" y="5942044.0" >
		</node>
		<node id="4992_pt" x="734187.0" y="5858596.0" >
		</node>
		<node id="5016_pt" x="932587.0" y="6004412.0" >
		</node>
		<node id="5048_pt" x="795750.0" y="5905378.0" >
		</node>
		<node id="5053_pt" x="972417.0" y="6017435.0" >
		</node>
		<node id="771_pt" x="919560.0" y="5945099.0" >
		</node>
		<node id="776_pt" x="683256.0" y="5809536.0" >
		</node>
		<node id="790_pt" x="968788.0" y="6015083.0" >
		</node>
		<node id="791_pt" x="975000.0" y="6017560.0" >
		</node>
		<node id="803_pt" x="949471.0" y="5997225.0" >
		</node>
	</nodes>

<!-- ====================================================================== -->

	<links capperiod="01:00:00" effectivecellsize="7.5" effectivelanewidth="3.75">
		<link id="10f_7t0rk_pt" from="1311_pt" to="1328_pt" length="3676.0" freespeed="10000.0" capacity="10000.0" permlanes="1.0" oneway="1" modes="pt" >
		</link>
		<link id="10f_e6tokw_pt" from="1311_pt" to="19054463_pt" length="1196.0" freespeed="10000.0" capacity="10000.0" permlanes="1.0" oneway="1" modes="pt" >
		</link>
		<link id="10h_7tg6r_pt" from="1313_pt" to="1315_pt" length="1589.0" freespeed="10000.0" capacity="10000.0" permlanes="1.0" oneway="1" modes="pt" >
		</link>
		<link id="10h_e6toku_pt" from="1313_pt" to="19054465_pt" length="701.0" freespeed="10000.0" capacity="10000.0" permlanes="1.0" oneway="1" modes="pt" >
		</link>
		<link id="10j_7tg6r_pt" from="1315_pt" to="1313_pt" length="1589.0" freespeed="10000.0" capacity="10000.0" permlanes="1.0" oneway="1" modes="pt" >
		</link>
		<link id="10j_7twfw_pt" from="1315_pt" to="2380_pt" length="2804.0" freespeed="10000.0" capacity="10000.0" permlanes="1.0" oneway="1" modes="pt" >
		</link>
		<link id="10p_2zq96d_pt" from="1321_pt" to="19045940_pt" length="4256.0" freespeed="10000.0" capacity="10000.0" permlanes="1.0" oneway="1" modes="pt" >
		</link>
		<link id="10p_7v6z8_pt" from="1321_pt" to="2692_pt" length="8597.0" freespeed="10000.0" capacity="10000.0" permlanes="1.0" oneway="1" modes="pt" >
		</link>
		<link id="10w_7t0rk_pt" from="1328_pt" to="1311_pt" length="3676.0" freespeed="10000.0" capacity="10000.0" permlanes="1.0" oneway="1" modes="pt" >
		</link>
		<link id="10w_7wpe1_pt" from="1328_pt" to="3209_pt" length="390.0" freespeed="10000.0" capacity="10000.0" permlanes="1.0" oneway="1" modes="pt" >
		</link>
		<link id="11i_81dvv_pt" from="1350_pt" to="1579_pt" length="2421.0" freespeed="10000.0" capacity="10000.0" permlanes="1.0" oneway="1" modes="pt" >
		</link>
		<link id="11i_81e4a_pt" from="1350_pt" to="1882_pt" length="3317.0" freespeed="10000.0" capacity="10000.0" permlanes="1.0" oneway="1" modes="pt" >
		</link>
		<link id="11q_834wc_pt" from="1358_pt" to="3244_pt" length="3883.0" freespeed="10000.0" capacity="10000.0" permlanes="1.0" oneway="1" modes="pt" >
		</link>
		<link id="11q_8352d_pt" from="1358_pt" to="2776_pt" length="4447.0" freespeed="10000.0" capacity="10000.0" permlanes="1.0" oneway="1" modes="pt" >
		</link>
		<link id="126_86jir_pt" from="1374_pt" to="2163_pt" length="6058.0" freespeed="10000.0" capacity="10000.0" permlanes="1.0" oneway="1" modes="pt" >
		</link>
		<link id="126_86jlz_pt" from="1374_pt" to="2279_pt" length="4474.0" freespeed="10000.0" capacity="10000.0" permlanes="1.0" oneway="1" modes="pt" >
		</link>
		<link id="12n_8a6a5_pt" from="1391_pt" to="1629_pt" length="1976.0" freespeed="10000.0" capacity="10000.0" permlanes="1.0" oneway="1" modes="pt" >
		</link>
		<link id="12n_e6tocr_pt" from="1391_pt" to="19054309_pt" length="1425.0" freespeed="10000.0" capacity="10000.0" permlanes="1.0" oneway="1" modes="pt" >
		</link>
		<link id="12y_8cjdh_pt" from="1402_pt" to="2676_pt" length="12235.0" freespeed="10000.0" capacity="10000.0" permlanes="1.0" oneway="1" modes="pt" >
		</link>
		<link id="12y_8cjud_pt" from="1402_pt" to="2517_pt" length="3106.0" freespeed="10000.0" capacity="10000.0" permlanes="1.0" oneway="1" modes="pt" >
		</link>
		<link id="14h_8obhg_pt" from="1457_pt" to="1556_pt" length="2204.0" freespeed="10000.0" capacity="10000.0" permlanes="1.0" oneway="1" modes="pt" >
		</link>
		<link id="14h_8obn8_pt" from="1457_pt" to="1764_pt" length="2185.0" freespeed="10000.0" capacity="10000.0" permlanes="1.0" oneway="1" modes="pt" >
		</link>
		<link id="156_8todo_pt" from="1482_pt" to="1548_pt" length="3835.0" freespeed="10000.0" capacity="10000.0" permlanes="1.0" oneway="1" modes="pt" >
		</link>
		<link id="156_8tplv_pt" from="1482_pt" to="3139_pt" length="6415.0" freespeed="10000.0" capacity="10000.0" permlanes="1.0" oneway="1" modes="pt" >
		</link>
		<link id="15m_8x41a_pt" from="1498_pt" to="1806_pt" length="2687.0" freespeed="10000.0" capacity="10000.0" permlanes="1.0" oneway="1" modes="pt" >
		</link>
		<link id="15m_e6to8t_pt" from="1498_pt" to="19054275_pt" length="1143.0" freespeed="10000.0" capacity="10000.0" permlanes="1.0" oneway="1" modes="pt" >
		</link>
		<link id="15y_8zpmi_pt" from="1510_pt" to="2972_pt" length="1204.0" freespeed="10000.0" capacity="10000.0" permlanes="1.0" oneway="1" modes="pt" >
		</link>
		<link id="15y_evu4jl_pt" from="1510_pt" to="20000078_pt" length="1376.0" freespeed="10000.0" capacity="10000.0" permlanes="1.0" oneway="1" modes="pt" >
		</link>
		<link id="16s_9642s_pt" from="1540_pt" to="1764_pt" length="3128.0" freespeed="10000.0" capacity="10000.0" permlanes="1.0" oneway="1" modes="pt" >
		</link>
		<link id="16s_964yl_pt" from="1540_pt" to="2909_pt" length="1733.0" freespeed="10000.0" capacity="10000.0" permlanes="1.0" oneway="1" modes="pt" >
		</link>
		<link id="170_8todo_pt" from="1548_pt" to="1482_pt" length="3835.0" freespeed="10000.0" capacity="10000.0" permlanes="1.0" oneway="1" modes="pt" >
		</link>
		<link id="170_97u9a_pt" from="1548_pt" to="2350_pt" length="4135.0" freespeed="10000.0" capacity="10000.0" permlanes="1.0" oneway="1" modes="pt" >
		</link>
		<link id="178_8obhg_pt" from="1556_pt" to="1457_pt" length="2204.0" freespeed="10000.0" capacity="10000.0" permlanes="1.0" oneway="1" modes="pt" >
		</link>
		<link id="178_99k0f_pt" from="1556_pt" to="2383_pt" length="4892.0" freespeed="10000.0" capacity="10000.0" permlanes="1.0" oneway="1" modes="pt" >
		</link>
		<link id="17h_9bh0b_pt" from="1565_pt" to="1803_pt" length="1395.0" freespeed="10000.0" capacity="10000.0" permlanes="1.0" oneway="1" modes="pt" >
		</link>
		<link id="17h_9bi10_pt" from="1565_pt" to="3124_pt" length="2621.0" freespeed="10000.0" capacity="10000.0" permlanes="1.0" oneway="1" modes="pt" >
		</link>
		<link id="17v_81dvv_pt" from="1579_pt" to="1350_pt" length="2421.0" freespeed="10000.0" capacity="10000.0" permlanes="1.0" oneway="1" modes="pt" >
		</link>
		<link id="17v_9ehkv_pt" from="1579_pt" to="2511_pt" length="2251.0" freespeed="10000.0" capacity="10000.0" permlanes="1.0" oneway="1" modes="pt" >
		</link>
		<link id="18g_9iywx_pt" from="1600_pt" to="2176_pt" length="2367.0" freespeed="10000.0" capacity="10000.0" permlanes="1.0" oneway="1" modes="pt" >
		</link>
		<link id="18g_9izc5_pt" from="1600_pt" to="2147_pt" length="2577.0" freespeed="10000.0" capacity="10000.0" permlanes="1.0" oneway="1" modes="pt" >
		</link>
		<link id="18m_2zqbws_pt" from="1606_pt" to="2279_pt" length="6619.0" freespeed="10000.0" capacity="10000.0" permlanes="1.0" oneway="1" modes="pt" >
		</link>
		<link id="18m_9ka24_pt" from="1606_pt" to="2700_pt" length="5222.0" freespeed="10000.0" capacity="10000.0" permlanes="1.0" oneway="1" modes="pt" >
		</link>
		<link id="18t_9lr8f_pt" from="1613_pt" to="1642_pt" length="3678.0" freespeed="10000.0" capacity="10000.0" permlanes="1.0" oneway="1" modes="pt" >
		</link>
		<link id="18t_9lsgw_pt" from="1613_pt" to="3216_pt" length="7241.0" freespeed="10000.0" capacity="10000.0" permlanes="1.0" oneway="1" modes="pt" >
		</link>
		<link id="197_9orba_pt" from="1627_pt" to="1686_pt" length="5667.0" freespeed="10000.0" capacity="10000.0" permlanes="1.0" oneway="1" modes="pt" >
		</link>
		<link id="197_9osh2_pt" from="1627_pt" to="3190_pt" length="4642.0" freespeed="10000.0" capacity="10000.0" permlanes="1.0" oneway="1" modes="pt" >
		</link>
		<link id="199_8a6a5_pt" from="1629_pt" to="1391_pt" length="1976.0" freespeed="10000.0" capacity="10000.0" permlanes="1.0" oneway="1" modes="pt" >
		</link>
		<link id="199_9p7yi_pt" from="1629_pt" to="3258_pt" length="5370.0" freespeed="10000.0" capacity="10000.0" permlanes="1.0" oneway="1" modes="pt" >
		</link>
		<link id="19j_9rc10_pt" from="1639_pt" to="1844_pt" length="2031.0" freespeed="10000.0" capacity="10000.0" permlanes="1.0" oneway="1" modes="pt" >
		</link>
		<link id="19j_evu4h3_pt" from="1639_pt" to="20000019_pt" length="2358.0" freespeed="10000.0" capacity="10000.0" permlanes="1.0" oneway="1" modes="pt" >
		</link>
		<link id="19m_9lr8f_pt" from="1642_pt" to="1613_pt" length="3678.0" freespeed="10000.0" capacity="10000.0" permlanes="1.0" oneway="1" modes="pt" >
		</link>
		<link id="19m_9rzm8_pt" from="1642_pt" to="2416_pt" length="2698.0" freespeed="10000.0" capacity="10000.0" permlanes="1.0" oneway="1" modes="pt" >
		</link>
		<link id="19o_9sej3_pt" from="1644_pt" to="1743_pt" length="4751.0" freespeed="10000.0" capacity="10000.0" permlanes="1.0" oneway="1" modes="pt" >
		</link>
		<link id="19o_9sh2w_pt" from="1644_pt" to="5048_pt" length="6913.0" freespeed="10000.0" capacity="10000.0" permlanes="1.0" oneway="1" modes="pt" >
		</link>
		<link id="19r_9t224_pt" from="1647_pt" to="2236_pt" length="3536.0" freespeed="10000.0" capacity="10000.0" permlanes="1.0" oneway="1" modes="pt" >
		</link>
		<link id="19r_9t2tm_pt" from="1647_pt" to="3226_pt" length="4617.0" freespeed="10000.0" capacity="10000.0" permlanes="1.0" oneway="1" modes="pt" >
		</link>
		<link id="1a5_2zq91f_pt" from="1661_pt" to="19045929_pt" length="389.0" freespeed="10000.0" capacity="10000.0" permlanes="1.0" oneway="1" modes="pt" >
		</link>
		<link id="1a5_9w1vm_pt" from="1661_pt" to="1970_pt" length="2600.0" freespeed="10000.0" capacity="10000.0" permlanes="1.0" oneway="1" modes="pt" >
		</link>
		<link id="1al_6uy6l_pt" from="1677_pt" to="1152_pt" length="4662.0" freespeed="10000.0" capacity="10000.0" permlanes="1.0" oneway="1" modes="pt" >
		</link>
		<link id="1al_9zhwj_pt" from="1677_pt" to="2707_pt" length="5899.0" freespeed="10000.0" capacity="10000.0" permlanes="1.0" oneway="1" modes="pt" >
		</link>
		<link id="1ao_a04tw_pt" from="1680_pt" to="2420_pt" length="857.0" freespeed="10000.0" capacity="10000.0" permlanes="1.0" oneway="1" modes="pt" >
		</link>
		<link id="1ao_a05mr_pt" from="1680_pt" to="2776_pt" length="5240.0" freespeed="10000.0" capacity="10000.0" permlanes="1.0" oneway="1" modes="pt" >
		</link>
		<link id="1au_9orba_pt" from="1686_pt" to="1627_pt" length="5667.0" freespeed="10000.0" capacity="10000.0" permlanes="1.0" oneway="1" modes="pt" >
		</link>
		<link id="1au_a1eqi_pt" from="1686_pt" to="1914_pt" length="3057.0" freespeed="10000.0" capacity="10000.0" permlanes="1.0" oneway="1" modes="pt" >
		</link>
		<link id="1b4_a3ki9_pt" from="1696_pt" to="2705_pt" length="10477.0" freespeed="10000.0" capacity="10000.0" permlanes="1.0" oneway="1" modes="pt" >
		</link>
		<link id="1b4_a3kvu_pt" from="1696_pt" to="3194_pt" length="4635.0" freespeed="10000.0" capacity="10000.0" permlanes="1.0" oneway="1" modes="pt" >
		</link>
		<link id="1b6_a3zbg_pt" from="1698_pt" to="1900_pt" length="5061.0" freespeed="10000.0" capacity="10000.0" permlanes="1.0" oneway="1" modes="pt" >
		</link>
		<link id="1b6_a3zzz_pt" from="1698_pt" to="2783_pt" length="4664.0" freespeed="10000.0" capacity="10000.0" permlanes="1.0" oneway="1" modes="pt" >
		</link>
		<link id="1bf_6zvob_pt" from="1707_pt" to="1175_pt" length="3003.0" freespeed="10000.0" capacity="10000.0" permlanes="1.0" oneway="1" modes="pt" >
		</link>
		<link id="1bf_a5xic_pt" from="1707_pt" to="2868_pt" length="3478.0" freespeed="10000.0" capacity="10000.0" permlanes="1.0" oneway="1" modes="pt" >
		</link>
		<link id="1cf_9sej3_pt" from="1743_pt" to="1644_pt" length="4751.0" freespeed="10000.0" capacity="10000.0" permlanes="1.0" oneway="1" modes="pt" >
		</link>
		<link id="1cf_adn65_pt" from="1743_pt" to="2717_pt" length="3053.0" freespeed="10000.0" capacity="10000.0" permlanes="1.0" oneway="1" modes="pt" >
		</link>
		<link id="1cm_2zq92e_pt" from="1750_pt" to="19045933_pt" length="6473.0" freespeed="10000.0" capacity="10000.0" permlanes="1.0" oneway="1" modes="pt" >
		</link>
		<link id="1cm_af5el_pt" from="1750_pt" to="3005_pt" length="7412.0" freespeed="10000.0" capacity="10000.0" permlanes="1.0" oneway="1" modes="pt" >
		</link>
		<link id="1cq_ag07k_pt" from="1754_pt" to="2928_pt" length="3671.0" freespeed="10000.0" capacity="10000.0" permlanes="1.0" oneway="1" modes="pt" >
		</link>
		<link id="1cq_gjdi6y_pt" from="1754_pt" to="3231_pt" length="5118.0" freespeed="10000.0" capacity="10000.0" permlanes="1.0" oneway="1" modes="pt" >
		</link>
		<link id="1cu_aguju_pt" from="1758_pt" to="2250_pt" length="10445.0" freespeed="10000.0" capacity="10000.0" permlanes="1.0" oneway="1" modes="pt" >
		</link>
		<link id="1cu_agv8s_pt" from="1758_pt" to="3148_pt" length="5391.0" freespeed="10000.0" capacity="10000.0" permlanes="1.0" oneway="1" modes="pt" >
		</link>
		<link id="1cv_4lafj_pt" from="1759_pt" to="771_pt" length="1945.0" freespeed="10000.0" capacity="10000.0" permlanes="1.0" oneway="1" modes="pt" >
		</link>