<?xml version="1.0" encoding="utf-8"?>
<!DOCTYPE facilities SYSTEM "http://www.matsim.org/files/dtd/facilities_v1.dtd">

<facilities name="3towns facilities">

<!-- ====================================================================== -->
	<facility id="1" x="0.0" y="0.0">
		<activity type="h">
		</activity>
		
		<activity type="sh">
		</activity>
	</facility>
<!-- ====================================================================== -->
	<facility id="2" x="0.0" y="8000.0">
		<activity type="h">
		</activity>
		
		<activity type="sh">
		</activity>
	</facility>
<!-- ====================================================================== -->
	<facility id="3" x="175.0" y="3900.0">
		<activity type="w">
		</activity>
	</facility>
<!-- ====================================================================== -->
	<facility id="4" x="175.0" y="4100.0">
		<activity type="w">
		</activity>
	</facility>

<!-- ====================================================================== -->
	<facility id="5" x="10000" y="4000.0">
		<activity type="sc">
		</activity>
	</facility>
<!-- ====================================================================== -->
	<facility id="6" x="10000" y="4000.0">
		<activity type="sc">
		</activity>
	</facility>
<!-- ====================================================================== -->
	<facility id="7" x="10000" y="4000.0">
		<activity type="sc">
		</activity>
	</facility>
<!-- ====================================================================== -->
	<facility id="8" x="10000" y="4000.0">
		<activity type="sc">
		</activity>
	</facility>
<!-- ====================================================================== -->
	<facility id="9" x="10000" y="4000.0">
		<activity type="sc">
		</activity>
	</facility>
<!-- ====================================================================== -->
	<facility id="10" x="10000" y="4000.0">
		<activity type="sc">
		</activity>
	</facility>
<!-- ====================================================================== -->
	<facility id="11" x="10000" y="4000.0">
		<activity type="sc">
		</activity>
	</facility>
<!-- ====================================================================== -->
	<facility id="12" x="10000" y="4000.0">
		<activity type="sc">
		</activity>
	</facility>
<!-- ====================================================================== -->
	<facility id="13" x="10000" y="4000.0">
		<activity type="sc">
		</activity>
	</facility>
<!-- ====================================================================== -->
	<facility id="14" x="10000" y="4000.0">
		<activity type="sc">
		</activity>
	</facility>
<!-- ====================================================================== -->
</facilities>
