<?xml version="1.0" encoding="utf-8"?>
<!DOCTYPE network SYSTEM "http://www.matsim.org/files/dtd/network_v1.dtd">

<network name="equil test network">
   <nodes>
      <node id="1" x="0" y="-200"/>
      <node id="2" x="0" y="200"/>
      <node id="3" x="0" y="3800"/>
      <node id="4" x="0" y="4200"/>
      <node id="5" x="0" y="7800"/>
      <node id="6" x="0" y="8200"/>
      
      <node id="7" x="350" y="4000"/>
      <node id="8" x="9800" y="4000"/>
      
      <node id="9" x="5100" y="1500"/>
      
      <node id="10" x="10200" y="4000"/>
      <node id="11" x="10200" y="4000"/>
      <node id="12" x="10200" y="4000"/>
      <node id="13" x="10200" y="4000"/>
      <node id="14" x="10200" y="4000"/>
      <node id="15" x="10200" y="4000"/>
      <node id="16" x="10200" y="4000"/>
      <node id="17" x="10200" y="4000"/>
      <node id="18" x="10200" y="4000"/>
      <node id="19" x="10200" y="4000"/>
     
   </nodes>
   <links capperiod="01:00:00">
      <link id="1" from="1" to="2" length="400.00" capacity="0.375" freespeed="13.89" permlanes="1"  />
      <link id="2" from="2" to="1" length="400.00" capacity="0.375" freespeed="13.89" permlanes="1"  />
      
      <link id="3" from="2" to="3" length="3600.00" capacity="0.375" freespeed="22.22" permlanes="1"  />
      <link id="4" from="3" to="2" length="3600.00" capacity="0.250" freespeed="22.22" permlanes="1"  />
      
      <link id="5" from="3" to="4" length="400.00" capacity="0.375" freespeed="13.89" permlanes="1"  />
      <link id="6" from="4" to="3" length="400.00" capacity="0.375" freespeed="13.89" permlanes="1"  />
      
      <link id="7" from="4" to="5" length="3600.00" capacity="0.375" freespeed="22.22" permlanes="1"  />
      <link id="8" from="5" to="4" length="3600.00" capacity="0.375" freespeed="22.22" permlanes="1"  />
      
      <link id="9" from="5" to="6" length="400.00" capacity="0.375" freespeed="13.89" permlanes="1"  />
      <link id="10" from="6" to="5" length="400.00" capacity="0.375" freespeed="13.89" permlanes="1"  />
      
      <link id="11" from="3" to="7" length="400.00" capacity="0.375" freespeed="13.89" permlanes="1"  />
      <link id="12" from="7" to="3" length="400.00" capacity="0.375" freespeed="13.89" permlanes="1"  />
      
      <link id="13" from="4" to="7" length="400.00" capacity="0.050" freespeed="13.89" permlanes="1"  />
      <link id="14" from="7" to="4" length="400.00" capacity="0.050" freespeed="13.89" permlanes="1"  />
      
      <link id="15" from="7" to="8" length="9450.00" capacity="0.025" freespeed="22.22" permlanes="1"  />
      <link id="16" from="8" to="7" length="9450.00" capacity="0.025" freespeed="22.22" permlanes="1"  />
      
      <link id="17" from="7" to="9" length="5346.00" capacity="0.0375" freespeed="27.78" permlanes="1"  />
      <link id="18" from="9" to="7" length="5346.00" capacity="0.0375" freespeed="27.78" permlanes="1"  />
      
      <link id="19" from="9" to="8" length="5346.00" capacity="0.0375" freespeed="27.78" permlanes="1"  />
      <link id="20" from="8" to="9" length="5346.00" capacity="0.0375" freespeed="27.78" permlanes="1"  />
         
      <link id="21" from="8" to="10" length="400.0" capacity="0.050" freespeed="13.89" permlanes="1"  />
      <link id="22" from="10" to="8" length="400.0" capacity="0.050" freespeed="13.89" permlanes="1"  />
      
      <link id="23" from="8" to="11" length="400.0" capacity="0.050" freespeed="13.89" permlanes="1"  />
      <link id="24" from="11" to="8" length="400.0" capacity="0.050" freespeed="13.89" permlanes="1"  />
      
      <link id="25" from="8" to="12" length="400.0" capacity="0.050" freespeed="13.89" permlanes="1"  />
      <link id="26" from="12" to="8" length="400.0" capacity="0.050" freespeed="13.89" permlanes="1"  />
      
      <link id="27" from="8" to="13" length="400.0" capacity="0.050" freespeed="13.89" permlanes="1"  />
      <link id="28" from="13" to="8" length="400.0" capacity="0.050" freespeed="13.89" permlanes="1"  />
      
      <link id="29" from="8" to="14" length="400.0" capacity="0.050" freespeed="13.89" permlanes="1"  />
      <link id="30" from="14" to="8" length="400.0" capacity="0.050" freespeed="13.89" permlanes="1"  />
      
      <link id="31" from="8" to="15" length="400.0" capacity="0.050" freespeed="13.89" permlanes="1"  />
      <link id="32" from="15" to="8" length="400.0" capacity="0.050" freespeed="13.89" permlanes="1"  />
      
      <link id="33" from="8" to="16" length="400.0" capacity="0.050" freespeed="13.89" permlanes="1"  />
      <link id="34" from="16" to="8" length="400.0" capacity="0.050" freespeed="13.89" permlanes="1"  />
      
      <link id="35" from="8" to="17" length="400.0" capacity="0.050" freespeed="13.89" permlanes="1"  />
      <link id="36" from="17" to="8" length="400.0" capacity="0.050" freespeed="13.89" permlanes="1"  />
      
      <link id="37" from="8" to="18" length="400.0" capacity="0.050" freespeed="13.89" permlanes="1"  />
      <link id="38" from="18" to="8" length="400.0" capacity="0.050" freespeed="13.89" permlanes="1"  />
      
      <link id="39" from="8" to="19" length="400.0" capacity="0.050" freespeed="13.89" permlanes="1"  />
      <link id="40" from="19" to="8" length="400.0" capacity="0.050" freespeed="13.89" permlanes="1"  />
      
   </links>
</network>
