<?xml version="1.0" encoding="utf-8"?>
<!DOCTYPE network SYSTEM "http://www.matsim.org/files/dtd/network_v1.dtd">

<network name="OTFVis test network">
   <nodes>
      <node id="1" x="-10000" y="0"/>
      <node id="2" x="-10000" y="10000"/>
      <node id="3" x="0" y="10000"/>
      <node id="4" x="0" y="0"/>
   </nodes>
   <links capperiod="01:00:00">
      <link id="1" from="1" to="2" length="10000.00" capacity="36000" freespeed="27.78" permlanes="1"  />
      <link id="2" from="2" to="3" length="10000.00" capacity="3600" freespeed="27.78" permlanes="1"  />
      <link id="3" from="3" to="4" length="10000.00" capacity="3600" freespeed="27.78" permlanes="1"  />
      <link id="4" from="4" to="1" length="10000.00" capacity="3600" freespeed="27.78" permlanes="1"  />
   </links>
</network>
