<?xml version="1.0" encoding="UTF-8"?>
<!DOCTYPE transitSchedule SYSTEM "http://www.matsim.org/files/dtd/transitSchedule_v1.dtd">

<transitSchedule>
	<transitStops>
		<stopFacility id="11_1" x="682947.637268434" y="4825919.285100707" linkRefId="11_1" name="stopOn11_1" isBlocking="false"/>
		<stopFacility id="11_2" x="682347.6863159449" y="4825911.613425049" linkRefId="11_2" name="stopOn11_2" isBlocking="false"/>
		<stopFacility id="11_4" x="681747.7353634558" y="4825903.941749391" linkRefId="11_4" name="stopOn11_4" isBlocking="false"/>
		<stopFacility id="11_5" x="681147.7844109667" y="4825896.270073733" linkRefId="11_5" name="stopOn11_5" isBlocking="false"/>
		<stopFacility id="12_1" x="683443.2726599954" y="4826115.191447932" linkRefId="12_1" name="stopOn12_1" isBlocking="false"/>
		<stopFacility id="12_3" x="683896.8403575227" y="4826507.97172208" linkRefId="12_3" name="stopOn12_3" isBlocking="false"/>
		<stopFacility id="12_4" x="684350.4080550502" y="4826900.751996228" linkRefId="12_4" name="stopOn12_4" isBlocking="false"/>
		<stopFacility id="12_5" x="684803.9757525777" y="4827293.532270376" linkRefId="12_5" name="stopOn12_5" isBlocking="false"/>
		<stopFacility id="13_1" x="683230.6711122578" y="4825608.046653388" linkRefId="13_1" name="stopOn13_1" isBlocking="false"/>
		<stopFacility id="13_2" x="683244.9527790251" y="4825008.216649141" linkRefId="13_2" name="stopOn13_2" isBlocking="false"/>
		<stopFacility id="14_2" x="684839.4856276416" y="4827864.776510332" linkRefId="14_2" name="stopOn14_2" isBlocking="false"/>
		<stopFacility id="14_3" x="684817.1826404381" y="4828464.361847679" linkRefId="14_3" name="stopOn14_3" isBlocking="false"/>
		<stopFacility id="14_4" x="684794.8796532346" y="4829063.947185026" linkRefId="14_4" name="stopOn14_4" isBlocking="false"/>
		<stopFacility id="14_5" x="684772.5766660313" y="4829663.532522373" linkRefId="14_5" name="stopOn14_5" isBlocking="false"/>
		<stopFacility id="14_7" x="684750.2736788278" y="4830263.11785972" linkRefId="14_7" name="stopOn14_7" isBlocking="false"/>
		<stopFacility id="15_1" x="684797.1222202207" y="4827285.706784687" linkRefId="15_1" name="stopOn15_1" isBlocking="false"/>
		<stopFacility id="15_2" x="684343.5545226933" y="4826892.926510539" linkRefId="15_2" name="stopOn15_2" isBlocking="false"/>
		<stopFacility id="15_3" x="683889.9868251658" y="4826500.146236392" linkRefId="15_3" name="stopOn15_3" isBlocking="false"/>
		<stopFacility id="15_5" x="683436.4191276385" y="4826107.365962244" linkRefId="15_5" name="stopOn15_5" isBlocking="false"/>
		<stopFacility id="17_1" x="685962.18480011" y="4825925.424106005" linkRefId="17_1" name="stopOn17_1" isBlocking="false"/>
		<stopFacility id="17_2" x="685368.9245705869" y="4825835.7452341" linkRefId="17_2" name="stopOn17_2" isBlocking="false"/>
		<stopFacility id="20_2" x="685368.9932378202" y="4825845.41734938" linkRefId="20_2" name="stopOn20_2" isBlocking="false"/>
		<stopFacility id="20_3" x="685962.2534673434" y="4825935.096221285" linkRefId="20_3" name="stopOn20_3" isBlocking="false"/>
		<stopFacility id="22_1" x="684835.0465099585" y="4825698.819674253" linkRefId="22_1" name="stopOn22_1" isBlocking="false"/>
		<stopFacility id="22_2" x="684860.7532322977" y="4825099.370623519" linkRefId="22_2" name="stopOn22_2" isBlocking="false"/>
		<stopFacility id="22_3" x="684886.459954637" y="4824499.921572784" linkRefId="22_3" name="stopOn22_3" isBlocking="false"/>
		<stopFacility id="23_2" x="683254.9402730083" y="4825008.384877036" linkRefId="23_2" name="stopOn23_2" isBlocking="false"/>
		<stopFacility id="23_3" x="683240.658606241" y="4825608.214881283" linkRefId="23_3" name="stopOn23_3" isBlocking="false"/>
		<stopFacility id="25_1" x="683259.172718351" y="4824408.382427565" linkRefId="25_1" name="stopOn25_1" isBlocking="false"/>
		<stopFacility id="25_2" x="683273.1224350004" y="4823808.544611647" linkRefId="25_2" name="stopOn25_2" isBlocking="false"/>
		<stopFacility id="26_1" x="683283.110284003" y="4823808.718377334" linkRefId="26_1" name="stopOn26_1" isBlocking="false"/>
		<stopFacility id="26_2" x="683269.1605673536" y="4824408.556193252" linkRefId="26_2" name="stopOn26_2" isBlocking="false"/>
		<stopFacility id="27_1" x="683016.0982602922" y="4823777.24616847" linkRefId="27_1" name="stopOn27_1" isBlocking="false"/>
		<stopFacility id="27_2" x="682417.2997596622" y="4823739.294150825" linkRefId="27_2" name="stopOn27_2" isBlocking="false"/>
		<stopFacility id="27_4" x="681818.5012590324" y="4823701.342133179" linkRefId="27_4" name="stopOn27_4" isBlocking="false"/>
		<stopFacility id="27_5" x="681219.7027584024" y="4823663.390115534" linkRefId="27_5" name="stopOn27_5" isBlocking="false"/>
		<stopFacility id="28_2" x="683295.4691557619" y="4823209.032871801" linkRefId="28_2" name="stopOn28_2" isBlocking="false"/>
		<stopFacility id="28_3" x="683317.9501266262" y="4822609.454181429" linkRefId="28_3" name="stopOn28_3" isBlocking="false"/>
		<stopFacility id="29_1" x="683612.2013285251" y="4823858.128827085" linkRefId="29_1" name="stopOn29_1" isBlocking="false"/>
		<stopFacility id="29_3" x="684204.3664329051" y="4823954.77503319" linkRefId="29_3" name="stopOn29_3" isBlocking="false"/>
		<stopFacility id="29_4" x="684796.5315372853" y="4824051.421239294" linkRefId="29_4" name="stopOn29_4" isBlocking="false"/>
		<stopFacility id="2_1" x="679893.8544914556" y="4831027.656758826" linkRefId="2_1" name="stopOn2_1" isBlocking="false"/>
		<stopFacility id="2_2" x="679863.5218134534" y="4830428.423975473" linkRefId="2_2" name="stopOn2_2" isBlocking="false"/>
		<stopFacility id="2_3" x="679833.1891354511" y="4829829.19119212" linkRefId="2_3" name="stopOn2_3" isBlocking="false"/>
		<stopFacility id="2_5" x="679802.856457449" y="4829229.958408767" linkRefId="2_5" name="stopOn2_5" isBlocking="false"/>
		<stopFacility id="2_6" x="679772.5237794467" y="4828630.7256254135" linkRefId="2_6" name="stopOn2_6" isBlocking="false"/>
		<stopFacility id="2_7" x="679742.1911014445" y="4828031.4928420605" linkRefId="2_7" name="stopOn2_7" isBlocking="false"/>
		<stopFacility id="2_8" x="679711.8584234423" y="4827432.260058708" linkRefId="2_8" name="stopOn2_8" isBlocking="false"/>
		<stopFacility id="2_9" x="679681.5257454402" y="4826833.027275355" linkRefId="2_9" name="stopOn2_9" isBlocking="false"/>
		<stopFacility id="32_1" x="681220.2490332233" y="4823673.364623437" linkRefId="32_1" name="stopOn32_1" isBlocking="false"/>
		<stopFacility id="32_2" x="681819.0475338532" y="4823711.316641082" linkRefId="32_2" name="stopOn32_2" isBlocking="false"/>
		<stopFacility id="32_4" x="682417.8460344832" y="4823749.268658728" linkRefId="32_4" name="stopOn32_4" isBlocking="false"/>
		<stopFacility id="32_5" x="683016.6445351131" y="4823787.220676373" linkRefId="32_5" name="stopOn32_5" isBlocking="false"/>
		<stopFacility id="33_1" x="680620.6218200255" y="4823637.065919535" linkRefId="33_1" name="stopOn33_1" isBlocking="false"/>
		<stopFacility id="33_3" x="680020.7575819913" y="4823624.30285064" linkRefId="33_3" name="stopOn33_3" isBlocking="false"/>
		<stopFacility id="33_4" x="679420.893343957" y="4823611.539781746" linkRefId="33_4" name="stopOn33_4" isBlocking="false"/>
		<stopFacility id="36_1" x="679421.0196494425" y="4823621.535680487" linkRefId="36_1" name="stopOn36_1" isBlocking="false"/>
		<stopFacility id="36_2" x="680020.8838874768" y="4823634.298749381" linkRefId="36_2" name="stopOn36_2" isBlocking="false"/>
		<stopFacility id="36_4" x="680620.748125511" y="4823647.061818276" linkRefId="36_4" name="stopOn36_4" isBlocking="false"/>
		<stopFacility id="39_1" x="679416.9407963919" y="4820345.211965542" linkRefId="39_1" name="stopOn39_1" isBlocking="false"/>
		<stopFacility id="39_2" x="680016.4483427044" y="4820369.516325528" linkRefId="39_2" name="stopOn39_2" isBlocking="false"/>
		<stopFacility id="39_4" x="680615.955889017" y="4820393.820685513" linkRefId="39_4" name="stopOn39_4" isBlocking="false"/>
		<stopFacility id="41_1" x="681363.91912384" y="4822024.578166484" linkRefId="41_1" name="stopOn41_1" isBlocking="false"/>
		<stopFacility id="41_3" x="681963.8268090461" y="4822035.102862716" linkRefId="41_3" name="stopOn41_3" isBlocking="false"/>
		<stopFacility id="41_4" x="682563.734494252" y="4822045.6275589485" linkRefId="41_4" name="stopOn41_4" isBlocking="false"/>
		<stopFacility id="41_5" x="683163.642179458" y="4822056.15225518" linkRefId="41_5" name="stopOn41_5" isBlocking="false"/>
		<stopFacility id="42_1" x="680929.9184101835" y="4821845.412656993" linkRefId="42_1" name="stopOn42_1" isBlocking="false"/>
		<stopFacility id="42_2" x="680944.9137248793" y="4821245.600069148" linkRefId="42_2" name="stopOn42_2" isBlocking="false"/>
		<stopFacility id="43_1" x="683340.4354051264" y="4822275.903626632" linkRefId="43_1" name="stopOn43_1" isBlocking="false"/>
		<stopFacility id="43_2" x="683317.954434262" y="4822875.482317005" linkRefId="43_2" name="stopOn43_2" isBlocking="false"/>
		<stopFacility id="43_4" x="683295.4734633977" y="4823475.061007378" linkRefId="43_4" name="stopOn43_4" isBlocking="false"/>
		<stopFacility id="44_1" x="683163.5728106103" y="4822046.155654159" linkRefId="44_1" name="stopOn44_1" isBlocking="false"/>
		<stopFacility id="44_2" x="682563.6651254043" y="4822035.630957928" linkRefId="44_2" name="stopOn44_2" isBlocking="false"/>
		<stopFacility id="44_3" x="681963.7574401983" y="4822025.106261696" linkRefId="44_3" name="stopOn44_3" isBlocking="false"/>
		<stopFacility id="44_5" x="681363.8497549923" y="4822014.581565463" linkRefId="44_5" name="stopOn44_5" isBlocking="false"/>
		<stopFacility id="46_1" x="683339.9626892845" y="4822009.808179002" linkRefId="46_1" name="stopOn46_1" isBlocking="false"/>
		<stopFacility id="46_2" x="683356.1729860932" y="4821410.027197079" linkRefId="46_2" name="stopOn46_2" isBlocking="false"/>
		<stopFacility id="47_2" x="684896.5125617085" y="4824498.0522711165" linkRefId="47_2" name="stopOn47_2" isBlocking="false"/>
		<stopFacility id="47_3" x="684870.8058393693" y="4825097.501321852" linkRefId="47_3" name="stopOn47_3" isBlocking="false"/>
		<stopFacility id="47_4" x="684845.09911703" y="4825696.950372586" linkRefId="47_4" name="stopOn47_4" isBlocking="false"/>
		<stopFacility id="48_1" x="684795.0060704285" y="4824041.565743078" linkRefId="48_1" name="stopOn48_1" isBlocking="false"/>
		<stopFacility id="48_2" x="684202.8409660483" y="4823944.919536973" linkRefId="48_2" name="stopOn48_2" isBlocking="false"/>
		<stopFacility id="48_4" x="683610.6758616683" y="4823848.273330868" linkRefId="48_4" name="stopOn48_4" isBlocking="false"/>
		<stopFacility id="49_2" x="684905.0908076409" y="4823581.029586938" linkRefId="49_2" name="stopOn49_2" isBlocking="false"/>
		<stopFacility id="4_1" x="684740.2956953436" y="4830263.083486209" linkRefId="4_1" name="stopOn4_1" isBlocking="false"/>
		<stopFacility id="4_3" x="684762.5986825471" y="4829663.498148861" linkRefId="4_3" name="stopOn4_3" isBlocking="false"/>
		<stopFacility id="4_4" x="684784.9016697505" y="4829063.912811514" linkRefId="4_4" name="stopOn4_4" isBlocking="false"/>
		<stopFacility id="4_5" x="684807.2046569539" y="4828464.327474167" linkRefId="4_5" name="stopOn4_5" isBlocking="false"/>
		<stopFacility id="4_6" x="684829.5076441574" y="4827864.742136819" linkRefId="4_6" name="stopOn4_6" isBlocking="false"/>
		<stopFacility id="50_1" x="685075.2115423321" y="4824075.225321988" linkRefId="50_1" name="stopOn50_1" isBlocking="false"/>
		<stopFacility id="50_2" x="685674.927720178" y="4824093.67812746" linkRefId="50_2" name="stopOn50_2" isBlocking="false"/>
		<stopFacility id="50_3" x="686274.643898024" y="4824112.130932933" linkRefId="50_3" name="stopOn50_3" isBlocking="false"/>
		<stopFacility id="52_1" x="684915.0908076409" y="4823580.943155052" linkRefId="52_1" name="stopOn52_1" isBlocking="false"/>
		<stopFacility id="53_2" x="684928.1978230751" y="4822981.842905534" linkRefId="53_2" name="stopOn53_2" isBlocking="false"/>
		<stopFacility id="53_3" x="684957.670398595" y="4822382.567203296" linkRefId="53_3" name="stopOn53_3" isBlocking="false"/>
		<stopFacility id="55_1" x="686275.7778496366" y="4824102.180017098" linkRefId="55_1" name="stopOn55_1" isBlocking="false"/>
		<stopFacility id="55_2" x="685676.0616717907" y="4824083.727211625" linkRefId="55_2" name="stopOn55_2" isBlocking="false"/>
		<stopFacility id="55_3" x="685076.3454939447" y="4824065.274406153" linkRefId="55_3" name="stopOn55_3" isBlocking="false"/>
		<stopFacility id="58_1" x="684967.6625725828" y="4822381.989666156" linkRefId="58_1" name="stopOn58_1" isBlocking="false"/>
		<stopFacility id="58_2" x="684938.1899970629" y="4822981.265368394" linkRefId="58_2" name="stopOn58_2" isBlocking="false"/>
		<stopFacility id="59_1" x="684963.5577217996" y="4821782.557017904" linkRefId="59_1" name="stopOn59_1" isBlocking="false"/>
		<stopFacility id="59_3" x="684955.5584328158" y="4821182.610344128" linkRefId="59_3" name="stopOn59_3" isBlocking="false"/>
		<stopFacility id="59_4" x="684947.5591438322" y="4820582.663670351" linkRefId="59_4" name="stopOn59_4" isBlocking="false"/>
		<stopFacility id="5_1" x="679691.4904335204" y="4826833.0878311265" linkRefId="5_1" name="stopOn5_1" isBlocking="false"/>
		<stopFacility id="5_2" x="679721.8231115226" y="4827432.3206144795" linkRefId="5_2" name="stopOn5_2" isBlocking="false"/>
		<stopFacility id="5_3" x="679752.1557895248" y="4828031.553397832" linkRefId="5_3" name="stopOn5_3" isBlocking="false"/>
		<stopFacility id="5_4" x="679782.488467527" y="4828630.786181185" linkRefId="5_4" name="stopOn5_4" isBlocking="false"/>
		<stopFacility id="5_5" x="679812.8211455293" y="4829230.018964539" linkRefId="5_5" name="stopOn5_5" isBlocking="false"/>
		<stopFacility id="5_7" x="679843.1538235313" y="4829829.251747892" linkRefId="5_7" name="stopOn5_7" isBlocking="false"/>
		<stopFacility id="5_8" x="679873.4865015337" y="4830428.484531245" linkRefId="5_8" name="stopOn5_8" isBlocking="false"/>
		<stopFacility id="5_9" x="679903.8191795358" y="4831027.717314598" linkRefId="5_9" name="stopOn5_9" isBlocking="false"/>
		<stopFacility id="61_1" x="684957.557102739" y="4820582.710567629" linkRefId="61_1" name="stopOn61_1" isBlocking="false"/>
		<stopFacility id="61_2" x="684965.5563917228" y="4821182.657241406" linkRefId="61_2" name="stopOn61_2" isBlocking="false"/>
		<stopFacility id="61_4" x="684973.5556807064" y="4821782.603915183" linkRefId="61_4" name="stopOn61_4" isBlocking="false"/>
		<stopFacility id="65_1" x="683390.822962411" y="4820476.676256439" linkRefId="65_1" name="stopOn65_1" isBlocking="false"/>
		<stopFacility id="65_2" x="683375.0389531578" y="4821076.468608051" linkRefId="65_2" name="stopOn65_2" isBlocking="false"/>
		<stopFacility id="67_2" x="683358.9668303882" y="4821676.2497254005" linkRefId="67_2" name="stopOn67_2" isBlocking="false"/>
		<stopFacility id="69_2" x="683372.0555126928" y="4820810.233923194" linkRefId="69_2" name="stopOn69_2" isBlocking="false"/>
		<stopFacility id="6_2" x="680140.905302646" y="4826455.345205869" linkRefId="6_2" name="stopOn6_2" isBlocking="false"/>
		<stopFacility id="6_3" x="680606.78015928" y="4826077.243872948" linkRefId="6_3" name="stopOn6_3" isBlocking="false"/>
		<stopFacility id="71_1" x="680954.913251992" y="4821245.24412129" linkRefId="71_1" name="stopOn71_1" isBlocking="false"/>
		<stopFacility id="71_2" x="680939.9179372962" y="4821845.056709135" linkRefId="71_2" name="stopOn71_2" isBlocking="false"/>
		<stopFacility id="73_2" x="680961.3518209564" y="4820645.839419345" linkRefId="73_2" name="stopOn73_2" isBlocking="false"/>
		<stopFacility id="74_1" x="680615.656788376" y="4820383.833189238" linkRefId="74_1" name="stopOn74_1" isBlocking="false"/>
		<stopFacility id="74_3" x="680016.1492420635" y="4820359.528829251" linkRefId="74_3" name="stopOn74_3" isBlocking="false"/>
		<stopFacility id="74_4" x="679416.641695751" y="4820335.224469267" linkRefId="74_4" name="stopOn74_4" isBlocking="false"/>
		<stopFacility id="76_1" x="680971.3509101125" y="4820645.455730493" linkRefId="76_1" name="stopOn76_1" isBlocking="false"/>
		<stopFacility id="8_1" x="680613.4278057395" y="4826069.19851484" linkRefId="8_1" name="stopOn8_1" isBlocking="false"/>
		<stopFacility id="8_2" x="680147.5529491054" y="4826447.29984776" linkRefId="8_2" name="stopOn8_2" isBlocking="false"/>
		<stopFacility id="9_1" x="681147.4667500554" y="4825906.263559307" linkRefId="9_1" name="stopOn9_1" isBlocking="false"/>
		<stopFacility id="9_2" x="681747.4177025446" y="4825913.935234964" linkRefId="9_2" name="stopOn9_2" isBlocking="false"/>
		<stopFacility id="9_4" x="682347.3686550336" y="4825921.606910623" linkRefId="9_4" name="stopOn9_4" isBlocking="false"/>
		<stopFacility id="9_5" x="682947.3196075228" y="4825929.27858628" linkRefId="9_5" name="stopOn9_5" isBlocking="false"/>
	</transitStops>
	<transitLine id="Line1">
		<transitRoute id="26_1to14_7">
			<transportMode>bus</transportMode>
			<routeProfile>
				<stop refId="26_1" arrivalOffset="00:01:00" departureOffset="00:01:00" awaitDeparture="false"/>
				<stop refId="26_2" arrivalOffset="00:02:00" departureOffset="00:02:00" awaitDeparture="false"/>
				<stop refId="23_2" arrivalOffset="00:03:00" departureOffset="00:03:00" awaitDeparture="false"/>
				<stop refId="23_3" arrivalOffset="00:04:00" departureOffset="00:04:00" awaitDeparture="false"/>
				<stop refId="12_1" arrivalOffset="00:05:00" departureOffset="00:05:00" awaitDeparture="false"/>
				<stop refId="12_3" arrivalOffset="00:06:00" departureOffset="00:06:00" awaitDeparture="false"/>
				<stop refId="12_4" arrivalOffset="00:07:00" departureOffset="00:07:00" awaitDeparture="false"/>
				<stop refId="12_5" arrivalOffset="00:08:00" departureOffset="00:08:00" awaitDeparture="false"/>
				<stop refId="14_2" arrivalOffset="00:09:00" departureOffset="00:09:00" awaitDeparture="false"/>
				<stop refId="14_3" arrivalOffset="00:10:00" departureOffset="00:10:00" awaitDeparture="false"/>
				<stop refId="14_4" arrivalOffset="00:11:00" departureOffset="00:11:00" awaitDeparture="false"/>
				<stop refId="14_5" arrivalOffset="00:12:00" departureOffset="00:12:00" awaitDeparture="false"/>
				<stop refId="14_7" arrivalOffset="00:13:00" departureOffset="00:13:00" awaitDeparture="false"/>
			</routeProfile>
			<route>
				<link refId="26_1"/>
				<link refId="26_2"/>
				<link refId="23_1"/>
				<link refId="23_2"/>
				<link refId="23_3"/>
				<link refId="12_1"/>
				<link refId="12_2"/>
				<link refId="12_3"/>
				<link refId="12_4"/>
				<link refId="12_5"/>
				<link refId="14_1"/>
				<link refId="14_2"/>
				<link refId="14_3"/>
				<link refId="14_4"/>
				<link refId="14_5"/>
				<link refId="14_6"/>
				<link refId="14_7"/>
			</route>
			<departures>
				<departure id="1" departureTime="06:00:00" vehicleRefId="bus_Line1_1"/>
				<departure id="10" departureTime="06:45:00" vehicleRefId="bus_Line1_10"/>
				<departure id="100" departureTime="14:15:00" vehicleRefId="bus_Line1_100"/>
				<departure id="101" departureTime="14:20:00" vehicleRefId="bus_Line1_101"/>
				<departure id="102" departureTime="14:25:00" vehicleRefId="bus_Line1_102"/>
				<departure id="103" departureTime="14:30:00" vehicleRefId="bus_Line1_103"/>
				<departure id="104" departureTime="14:35:00" vehicleRefId="bus_Line1_104"/>
				<departure id="105" departureTime="14:40:00" vehicleRefId="bus_Line1_105"/>
				<departure id="106" departureTime="14:45:00" vehicleRefId="bus_Line1_106"/>
				<departure id="107" departureTime="14:50:00" vehicleRefId="bus_Line1_107"/>
				<departure id="108" departureTime="14:55:00" vehicleRefId="bus_Line1_108"/>
				<departure id="109" departureTime="15:00:00" vehicleRefId="bus_Line1_109"/>
				<departure id="11" departureTime="06:50:00" vehicleRefId="bus_Line1_11"/>
				<departure id="110" departureTime="15:05:00" vehicleRefId="bus_Line1_110"/>
				<departure id="111" departureTime="15:10:00" vehicleRefId="bus_Line1_111"/>
				<departure id="112" departureTime="15:15:00" vehicleRefId="bus_Line1_112"/>
				<departure id="113" departureTime="15:20:00" vehicleRefId="bus_Line1_113"/>
				<departure id="114" departureTime="15:25:00" vehicleRefId="bus_Line1_114"/>
				<departure id="115" departureTime="15:30:00" vehicleRefId="bus_Line1_115"/>
				<departure id="116" departureTime="15:35:00" vehicleRefId="bus_Line1_116"/>
				<departure id="117" departureTime="15:40:00" vehicleRefId="bus_Line1_117"/>
				<departure id="118" departureTime="15:45:00" vehicleRefId="bus_Line1_118"/>
				<departure id="119" departureTime="15:50:00" vehicleRefId="bus_Line1_119"/>
				<departure id="12" departureTime="06:55:00" vehicleRefId="bus_Line1_12"/>
				<departure id="120" departureTime="15:55:00" vehicleRefId="bus_Line1_120"/>
				<departure id="121" departureTime="16:00:00" vehicleRefId="bus_Line1_121"/>
				<departure id="122" departureTime="16:05:00" vehicleRefId="bus_Line1_122"/>
				<departure id="123" departureTime="16:10:00" vehicleRefId="bus_Line1_123"/>
				<departure id="124" departureTime="16:15:00" vehicleRefId="bus_Line1_124"/>
				<departure id="125" departureTime="16:20:00" vehicleRefId="bus_Line1_125"/>
				<departure id="126" departureTime="16:25:00" vehicleRefId="bus_Line1_126"/>
				<departure id="127" departureTime="16:30:00" vehicleRefId="bus_Line1_127"/>
				<departure id="128" departureTime="16:35:00" vehicleRefId="bus_Line1_128"/>
				<departure id="129" departureTime="16:40:00" vehicleRefId="bus_Line1_129"/>
				<departure id="13" departureTime="07:00:00" vehicleRefId="bus_Line1_13"/>
				<departure id="130" departureTime="16:45:00" vehicleRefId="bus_Line1_130"/>
				<departure id="131" departureTime="16:50:00" vehicleRefId="bus_Line1_131"/>
				<departure id="132" departureTime="16:55:00" vehicleRefId="bus_Line1_132"/>
				<departure id="133" departureTime="17:00:00" vehicleRefId="bus_Line1_133"/>
				<departure id="134" departureTime="17:05:00" vehicleRefId="bus_Line1_134"/>
				<departure id="135" departureTime="17:10:00" vehicleRefId="bus_Line1_135"/>
				<departure id="136" departureTime="17:15:00" vehicleRefId="bus_Line1_136"/>
				<departure id="137" departureTime="17:20:00" vehicleRefId="bus_Line1_137"/>
				<departure id="138" departureTime="17:25:00" vehicleRefId="bus_Line1_138"/>
				<departure id="139" departureTime="17:30:00" vehicleRefId="bus_Line1_139"/>
				<departure id="14" departureTime="07:05:00" vehicleRefId="bus_Line1_14"/>
				<departure id="140" departureTime="17:35:00" vehicleRefId="bus_Line1_140"/>
				<departure id="141" departureTime="17:40:00" vehicleRefId="bus_Line1_141"/>
				<departure id="142" departureTime="17:45:00" vehicleRefId="bus_Line1_142"/>
				<departure id="143" departureTime="17:50:00" vehicleRefId="bus_Line1_143"/>
				<departure id="144" departureTime="17:55:00" vehicleRefId="bus_Line1_144"/>
				<departure id="145" departureTime="18:00:00" vehicleRefId="bus_Line1_145"/>
				<departure id="146" departureTime="18:05:00" vehicleRefId="bus_Line1_146"/>
				<departure id="147" departureTime="18:10:00" vehicleRefId="bus_Line1_147"/>
				<departure id="148" departureTime="18:15:00" vehicleRefId="bus_Line1_148"/>
				<departure id="149" departureTime="18:20:00" vehicleRefId="bus_Line1_149"/>
				<departure id="15" departureTime="07:10:00" vehicleRefId="bus_Line1_15"/>
				<departure id="150" departureTime="18:25:00" vehicleRefId="bus_Line1_150"/>
				<departure id="151" departureTime="18:30:00" vehicleRefId="bus_Line1_151"/>
				<departure id="152" departureTime="18:35:00" vehicleRefId="bus_Line1_152"/>
				<departure id="153" departureTime="18:40:00" vehicleRefId="bus_Line1_153"/>
				<departure id="154" departureTime="18:45:00" vehicleRefId="bus_Line1_154"/>
				<departure id="155" departureTime="18:50:00" vehicleRefId="bus_Line1_155"/>
				<departure id="156" departureTime="18:55:00" vehicleRefId="bus_Line1_156"/>
				<departure id="157" departureTime="19:00:00" vehicleRefId="bus_Line1_157"/>
				<departure id="158" departureTime="19:05:00" vehicleRefId="bus_Line1_158"/>
				<departure id="159" departureTime="19:10:00" vehicleRefId="bus_Line1_159"/>
				<departure id="16" departureTime="07:15:00" vehicleRefId="bus_Line1_16"/>
				<departure id="160" departureTime="19:15:00" vehicleRefId="bus_Line1_160"/>
				<departure id="161" departureTime="19:20:00" vehicleRefId="bus_Line1_161"/>
				<departure id="162" departureTime="19:25:00" vehicleRefId="bus_Line1_162"/>
				<departure id="163" departureTime="19:30:00" vehicleRefId="bus_Line1_163"/>
				<departure id="164" departureTime="19:35:00" vehicleRefId="bus_Line1_164"/>
				<departure id="165" departureTime="19:40:00" vehicleRefId="bus_Line1_165"/>
				<departure id="166" departureTime="19:45:00" vehicleRefId="bus_Line1_166"/>
				<departure id="167" departureTime="19:50:00" vehicleRefId="bus_Line1_167"/>
				<departure id="168" departureTime="19:55:00" vehicleRefId="bus_Line1_168"/>
				<departure id="169" departureTime="20:00:00" vehicleRefId="bus_Line1_169"/>
				<departure id="17" departureTime="07:20:00" vehicleRefId="bus_Line1_17"/>
				<departure id="170" departureTime="20:05:00" vehicleRefId="bus_Line1_170"/>
				<departure id="171" departureTime="20:10:00" vehicleRefId="bus_Line1_171"/>
				<departure id="172" departureTime="20:15:00" vehicleRefId="bus_Line1_172"/>
				<departure id="173" departureTime="20:20:00" vehicleRefId="bus_Line1_173"/>
				<departure id="174" departureTime="20:25:00" vehicleRefId="bus_Line1_174"/>
				<departure id="175" departureTime="20:30:00" vehicleRefId="bus_Line1_175"/>
				<departure id="176" departureTime="20:35:00" vehicleRefId="bus_Line1_176"/>
				<departure id="177" departureTime="20:40:00" vehicleRefId="bus_Line1_177"/>
				<departure id="178" departureTime="20:45:00" vehicleRefId="bus_Line1_178"/>
				<departure id="179" departureTime="20:50:00" vehicleRefId="bus_Line1_179"/>
				<departure id="18" departureTime="07:25:00" vehicleRefId="bus_Line1_18"/>
				<departure id="180" departureTime="20:55:00" vehicleRefId="bus_Line1_180"/>
				<departure id="181" departureTime="21:00:00" vehicleRefId="bus_Line1_181"/>
				<departure id="182" departureTime="21:05:00" vehicleRefId="bus_Line1_182"/>
				<departure id="183" departureTime="21:10:00" vehicleRefId="bus_Line1_183"/>
				<departure id="184" departureTime="21:15:00" vehicleRefId="bus_Line1_184"/>
				<departure id="185" departureTime="21:20:00" vehicleRefId="bus_Line1_185"/>
				<departure id="186" departureTime="21:25:00" vehicleRefId="bus_Line1_186"/>
				<departure id="187" departureTime="21:30:00" vehicleRefId="bus_Line1_187"/>
				<departure id="188" departureTime="21:35:00" vehicleRefId="bus_Line1_188"/>
				<departure id="189" departureTime="21:40:00" vehicleRefId="bus_Line1_189"/>
				<departure id="19" departureTime="07:30:00" vehicleRefId="bus_Line1_19"/>
				<departure id="190" departureTime="21:45:00" vehicleRefId="bus_Line1_190"/>
				<departure id="191" departureTime="21:50:00" vehicleRefId="bus_Line1_191"/>
				<departure id="192" departureTime="21:55:00" vehicleRefId="bus_Line1_192"/>
				<departure id="193" departureTime="22:00:00" vehicleRefId="bus_Line1_193"/>
				<departure id="194" departureTime="22:05:00" vehicleRefId="bus_Line1_194"/>
				<departure id="195" departureTime="22:10:00" vehicleRefId="bus_Line1_195"/>
				<departure id="196" departureTime="22:15:00" vehicleRefId="bus_Line1_196"/>
				<departure id="197" departureTime="22:20:00" vehicleRefId="bus_Line1_197"/>
				<departure id="198" departureTime="22:25:00" vehicleRefId="bus_Line1_198"/>
				<departure id="199" departureTime="22:30:00" vehicleRefId="bus_Line1_199"/>
				<departure id="2" departureTime="06:05:00" vehicleRefId="bus_Line1_2"/>
				<departure id="20" departureTime="07:35:00" vehicleRefId="bus_Line1_20"/>
				<departure id="200" departureTime="22:35:00" vehicleRefId="bus_Line1_200"/>
				<departure id="201" departureTime="22:40:00" vehicleRefId="bus_Line1_201"/>
				<departure id="202" departureTime="22:45:00" vehicleRefId="bus_Line1_202"/>
				<departure id="203" departureTime="22:50:00" vehicleRefId="bus_Line1_203"/>
				<departure id="204" departureTime="22:55:00" vehicleRefId="bus_Line1_204"/>
				<departure id="21" departureTime="07:40:00" vehicleRefId="bus_Line1_21"/>
				<departure id="22" departureTime="07:45:00" vehicleRefId="bus_Line1_22"/>
				<departure id="23" departureTime="07:50:00" vehicleRefId="bus_Line1_23"/>
				<departure id="24" departureTime="07:55:00" vehicleRefId="bus_Line1_24"/>
				<departure id="25" departureTime="08:00:00" vehicleRefId="bus_Line1_25"/>
				<departure id="26" departureTime="08:05:00" vehicleRefId="bus_Line1_26"/>
				<departure id="27" departureTime="08:10:00" vehicleRefId="bus_Line1_27"/>
				<departure id="28" departureTime="08:15:00" vehicleRefId="bus_Line1_28"/>
				<departure id="29" departureTime="08:20:00" vehicleRefId="bus_Line1_29"/>
				<departure id="3" departureTime="06:10:00" vehicleRefId="bus_Line1_3"/>
				<departure id="30" departureTime="08:25:00" vehicleRefId="bus_Line1_30"/>
				<departure id="31" departureTime="08:30:00" vehicleRefId="bus_Line1_31"/>
				<departure id="32" departureTime="08:35:00" vehicleRefId="bus_Line1_32"/>
				<departure id="33" departureTime="08:40:00" vehicleRefId="bus_Line1_33"/>
				<departure id="34" departureTime="08:45:00" vehicleRefId="bus_Line1_34"/>
				<departure id="35" departureTime="08:50:00" vehicleRefId="bus_Line1_35"/>
				<departure id="36" departureTime="08:55:00" vehicleRefId="bus_Line1_36"/>
				<departure id="37" departureTime="09:00:00" vehicleRefId="bus_Line1_37"/>
				<departure id="38" departureTime="09:05:00" vehicleRefId="bus_Line1_38"/>
				<departure id="39" departureTime="09:10:00" vehicleRefId="bus_Line1_39"/>
				<departure id="4" departureTime="06:15:00" vehicleRefId="bus_Line1_4"/>
				<departure id="40" departureTime="09:15:00" vehicleRefId="bus_Line1_40"/>
				<departure id="41" departureTime="09:20:00" vehicleRefId="bus_Line1_41"/>
				<departure id="42" departureTime="09:25:00" vehicleRefId="bus_Line1_42"/>