<?xml version="1.0" encoding="UTF-8"?>
<!DOCTYPE transitSchedule SYSTEM "http://www.matsim.org/files/dtd/transitSchedule_v1.dtd">

<transitSchedule>
	<transitStops>
		<stopFacility id="0" x="1000.0" y="1000.0" linkRefId= "20"/>
		<stopFacility id="1" x="3000.0" y="1000.0" linkRefId= "1"/>
		<stopFacility id="10" x="1000.0" y="5000.0" linkRefId= "22"/>
		<stopFacility id="14" x="9000.0" y="5000.0" linkRefId= "38"/>
		<stopFacility id="15" x="1000.0" y="7000.0" linkRefId= "23"/>
		<stopFacility id="19" x="9000.0" y="7000.0" linkRefId= "39"/>
		<stopFacility id="2" x="5000.0" y="1000.0" linkRefId= "2"/>
		<stopFacility id="20" x="1000.0" y="9000.0" linkRefId= "16"/>
		<stopFacility id="21" x="3000.0" y="9000.0" linkRefId= "17"/>
		<stopFacility id="22" x="5000.0" y="9000.0" linkRefId= "18"/>
		<stopFacility id="23" x="7000.0" y="9000.0" linkRefId= "19"/>
		<stopFacility id="24" x="9000.0" y="9000.0" linkRefId= "59"/>
		<stopFacility id="3" x="7000.0" y="1000.0" linkRefId= "3"/>
		<stopFacility id="4" x="9000.0" y="1000.0" linkRefId= "36"/>
		<stopFacility id="5" x="1000.0" y="3000.0" linkRefId= "21"/>
		<stopFacility id="6" x="3000.0" y="3000.0" linkRefId= "64"/>
		<stopFacility id="9" x="9000.0" y="3000.0" linkRefId= "37"/>
	</transitStops>
	<transitLine id="Red Line">
		<transitRoute id="Red route 0_24">
			<transportMode>pt</transportMode>
			<routeProfile>
				<stop refId="0" arrivalOffset="00:00:00" departureOffset="00:00:00"/>
				<stop refId="5" arrivalOffset="00:00:10" departureOffset="00:00:11"/>
				<stop refId="6" arrivalOffset="00:00:20" departureOffset="00:00:21"/>
				<stop refId="1" arrivalOffset="00:00:30" departureOffset="00:00:31"/>
				<stop refId="2" arrivalOffset="00:00:40" departureOffset="00:00:41"/>
				<stop refId="3" arrivalOffset="00:00:50" departureOffset="00:00:51"/>
				<stop refId="4" arrivalOffset="00:01:00" departureOffset="00:01:01"/>
				<stop refId="9" arrivalOffset="00:01:10" departureOffset="00:01:11"/>
				<stop refId="14" arrivalOffset="00:01:20" departureOffset="00:01:21"/>
				<stop refId="19" arrivalOffset="00:01:30" departureOffset="00:01:31"/>
				<stop refId="24" arrivalOffset="00:01:40" departureOffset="00:01:40"/>
			</routeProfile>
			
			<route>
				<link refId="20" />
				<link refId="4" />
				<link refId="64" />
				<link refId="1" />
				<link refId="2" />
				<link refId="3" />
				<link refId="36" />
				<link refId="37" />
				<link refId="38" />
				<link refId="39" />
			</route>
		
			<departures>
				<departure id="T6.1" departureTime="08:00:00" vehicleRefId="tr_1" />
				<departure id="T6.2" departureTime="08:30:00" vehicleRefId="tr_2" />
			</departures>
		</transitRoute>
	</transitLine>
</transitSchedule>