<?xml version="1.0" encoding="utf-8"?>
<!DOCTYPE network SYSTEM "http://matsim.org/files/dtd/network_v1.dtd">

<network name="test network for transit tutorial">
<!--

(14)==========(24)==========(34)==========(44)
 ||            ||            ||            ||
 ||            ||            ||            ||
 ||            ||            ||            ||
 ||            ||            ||            ||
 ||            ||            ||            ||
 ||            ||            ||            ||
(13)==========(23)==========(33)==========(43)
 ||            ||  (2)       ||            ||
 ||            || //   \\    ||            ||
 ||           /||/        \\ ||            ||
 ||         // ||           \||\           ||
 ||        //  ||            ||\\          ||
 ||       //   ||            || \\         ||
(12)==========(22)==========(32)==========(42)
 ||     //     ||            ||   \\       ||
 ||    //      ||            ||    \\      ||
 ||   //       ||            ||     \\     ||
 ||  //        ||            ||      \\    ||
 || //         ||            ||       \\   ||
 ||(1)         ||            ||        (3) ||
(11)==========(21)==========(31)==========(41)


-->
<nodes>
	<node id="1" x="1050" y="1050" />
	<node id="2" x="2050" y="2950" />
	<node id="3" x="3950" y="1050" />

	<node id="11" x="1000" y="1000" />
	<node id="12" x="1000" y="2000" />
	<node id="13" x="1000" y="3000" />
	<node id="14" x="1000" y="4000" />
	<node id="21" x="2000" y="1000" />
	<node id="22" x="2000" y="2000" />
	<node id="23" x="2000" y="3000" />
	<node id="24" x="2000" y="4000" />
	<node id="31" x="3000" y="1000" />
	<node id="32" x="3000" y="2000" />
	<node id="33" x="3000" y="3000" />
	<node id="34" x="3000" y="4000" />
	<node id="41" x="4000" y="1000" />
	<node id="42" x="4000" y="2000" />
	<node id="43" x="4000" y="3000" />
	<node id="44" x="4000" y="4000" />
</nodes>
<links capperiod="1:00:00">
	<link id="11" from="1" to="1" length="100.00" capacity="2000" freespeed="100" modes="train" permlanes="1" />
	<link id="12" from="1" to="2" length="2400.00" capacity="2000" freespeed="12" modes="train" permlanes="1" />
	<link id="21" from="2" to="1" length="2400.00" capacity="2000" freespeed="12" modes="train" permlanes="1" />
	<link id="23" from="2" to="3" length="3600.00" capacity="2000" freespeed="12" modes="train" permlanes="1" />
	<link id="32" from="3" to="2" length="3600.00" capacity="2000" freespeed="12" modes="train" permlanes="1" />
	<link id="33" from="3" to="3" length="100.00" capacity="2000" freespeed="100" modes="train" permlanes="1" />

	<link id="1112" from="11" to="12" length="1200.00" capacity="2000" freespeed="12" modes="car" permlanes="1" />
	<link id="1211" from="12" to="11" length="1200.00" capacity="2000" freespeed="12" modes="car" permlanes="1" />
	<link id="1213" from="12" to="13" length="1200.00" capacity="2000" freespeed="12" modes="car" permlanes="1" />
	<link id="1312" from="13" to="12" length="1200.00" capacity="2000" freespeed="12" modes="car" permlanes="1" />
	<link id="1314" from="13" to="14" length="1200.00" capacity="2000" freespeed="12" modes="car" permlanes="1" />
	<link id="1413" from="14" to="13" length="1200.00" capacity="2000" freespeed="12" modes="car" permlanes="1" />
	<link id="1121" from="11" to="21" length="1200.00" capacity="2000" freespeed="12" modes="car" permlanes="1" />
	<link id="2111" from="21" to="11" length="1200.00" capacity="2000" freespeed="12" modes="car" permlanes="1" />
	<link id="1222" from="12" to="22" length="1200.00" capacity="2000" freespeed="12" modes="car" permlanes="1" />
	<link id="2212" from="22" to="12" length="1200.00" capacity="2000" freespeed="12" modes="car" permlanes="1" />
	<link id="1323" from="13" to="23" length="1200.00" capacity="2000" freespeed="12" modes="car" permlanes="1" />
	<link id="2313" from="23" to="13" length="1200.00" capacity="2000" freespeed="12" modes="car" permlanes="1" />
	<link id="1424" from="14" to="24" length="1200.00" capacity="2000" freespeed="12" modes="car" permlanes="1" />
	<link id="2414" from="24" to="14" length="1200.00" capacity="2000" freespeed="12" modes="car" permlanes="1" />
	<link id="2122" from="21" to="22" length="1200.00" capacity="2000" freespeed="12" modes="car" permlanes="1" />
	<link id="2221" from="22" to="21" length="1200.00" capacity="2000" freespeed="12" modes="car" permlanes="1" />
	<link id="2223" from="22" to="23" length="1200.00" capacity="2000" freespeed="12" modes="car" permlanes="1" />
	<link id="2322" from="23" to="22" length="1200.00" capacity="2000" freespeed="12" modes="car" permlanes="1" />
	<link id="2324" from="23" to="24" length="1200.00" capacity="2000" freespeed="12" modes="car" permlanes="1" />
	<link id="2423" from="24" to="23" length="1200.00" capacity="2000" freespeed="12" modes="car" permlanes="1" />
	<link id="2131" from="21" to="31" length="1200.00" capacity="2000" freespeed="12" modes="car" permlanes="1" />
	<link id="3121" from="31" to="21" length="1200.00" capacity="2000" freespeed="12" modes="car" permlanes="1" />
	<link id="2232" from="22" to="32" length="1200.00" capacity="2000" freespeed="12" modes="car" permlanes="1" />
	<link id="3222" from="32" to="22" length="1200.00" capacity="2000" freespeed="12" modes="car" permlanes="1" />
	<link id="2333" from="23" to="33" length="1200.00" capacity="2000" freespeed="12" modes="car" permlanes="1" />
	<link id="3323" from="33" to="23" length="1200.00" capacity="2000" freespeed="12" modes="car" permlanes="1" />
	<link id="2434" from="24" to="34" length="1200.00" capacity="2000" freespeed="12" modes="car" permlanes="1" />
	<link id="3424" from="34" to="24" length="1200.00" capacity="2000" freespeed="12" modes="car" permlanes="1" />
	<link id="3132" from="31" to="32" length="1200.00" capacity="2000" freespeed="12" modes="car" permlanes="1" />
	<link id="3231" from="32" to="31" length="1200.00" capacity="2000" freespeed="12" modes="car" permlanes="1" />
	<link id="3233" from="32" to="33" length="1200.00" capacity="2000" freespeed="12" modes="car" permlanes="1" />
	<link id="3332" from="33" to="32" length="1200.00" capacity="2000" freespeed="12" modes="car" permlanes="1" />
	<link id="3334" from="33" to="34" length="1200.00" capacity="2000" freespeed="12" modes="car" permlanes="1" />
	<link id="3433" from="34" to="33" length="1200.00" capacity="2000" freespeed="12" modes="car" permlanes="1" />
	<link id="3141" from="31" to="41" length="1200.00" capacity="2000" freespeed="12" modes="car" permlanes="1" />
	<link id="4131" from="41" to="31" length="1200.00" capacity="2000" freespeed="12" modes="car" permlanes="1" />
	<link id="3242" from="32" to="42" length="1200.00" capacity="2000" freespeed="12" modes="car" permlanes="1" />
	<link id="4232" from="42" to="32" length="1200.00" capacity="2000" freespeed="12" modes="car" permlanes="1" />
	<link id="3343" from="33" to="43" length="1200.00" capacity="2000" freespeed="12" modes="car" permlanes="1" />
	<link id="4333" from="43" to="33" length="1200.00" capacity="2000" freespeed="12" modes="car" permlanes="1" />
	<link id="3444" from="34" to="44" length="1200.00" capacity="2000" freespeed="12" modes="car" permlanes="1" />
	<link id="4434" from="44" to="34" length="1200.00" capacity="2000" freespeed="12" modes="car" permlanes="1" />
	<link id="4142" from="41" to="42" length="1200.00" capacity="2000" freespeed="12" modes="car" permlanes="1" />
	<link id="4241" from="42" to="41" length="1200.00" capacity="2000" freespeed="12" modes="car" permlanes="1" />
	<link id="4243" from="42" to="43" length="1200.00" capacity="2000" freespeed="12" modes="car" permlanes="1" />
	<link id="4342" from="43" to="42" length="1200.00" capacity="2000" freespeed="12" modes="car" permlanes="1" />
	<link id="4344" from="43" to="44" length="1200.00" capacity="2000" freespeed="12" modes="car" permlanes="1" />
	<link id="4443" from="44" to="43" length="1200.00" capacity="2000" freespeed="12" modes="car" permlanes="1" />
</links>
</network>