<?xml version="1.0" encoding="UTF-8"?>
<!DOCTYPE network SYSTEM "http://www.matsim.org/files/dtd/network_v2.dtd">
<network name="test network">

	<attributes>
		<attribute name="coordinateReferenceSystem" class="java.lang.String">Atlantis</attribute>
	</attributes>
	<!-- ====================================================================== -->

	<nodes>
		<node id="1" x="0.0" y="0.0">
		</node>
		<node id="2" x="500.0" y="0.0">
		</node>
		<node id="2a" x="1000.0" y="0.0">
		</node>
		<node id="3" x="10500.0" y="0.0">
		</node>
		<node id="4" x="11000.0" y="0.0">
		</node>
	</nodes>

	<!-- ====================================================================== -->

	<links capperiod="01:00:00" effectivecellsize="7.5" effectivelanewidth="3.75">
		<link id="link_1-2" from="1" to="2" length="500.0" freespeed="2.7778" capacity="3600.0" permlanes="1.0" oneway="1" modes="rail">
			<attributes>
				<attribute name="railsimTrainCapacity" class="java.lang.Integer">5</attribute>
			</attributes>
		</link>
		<link id="link_2-2a" from="2" to="2a" length="500.0" freespeed="22.222" capacity="3600.0" permlanes="1.0" oneway="1" modes="rail">
			<attributes>
				<attribute name="railsimTrainCapacity" class="java.lang.Integer">1</attribute>
			</attributes>
		</link>
		<link id="link_2a-3" from="2a" to="3" length="9500.0" freespeed="22.222" capacity="3600.0" permlanes="1.0" oneway="1" modes="rail">
			<attributes>
				<attribute name="railsimTrainCapacity" class="java.lang.Integer">1</attribute>
			</attributes>
		</link>
		<link id="link_3-4" from="3" to="4" length="500.0" freespeed="2.7778" capacity="3600.0" permlanes="1.0" oneway="1" modes="rail">
			<attributes>
				<attribute name="railsimTrainCapacity" class="java.lang.Integer">5</attribute>
			</attributes>
		</link>
	</links>

	<!-- ====================================================================== -->

</network>
