<?xml version="1.0" encoding="utf-8"?>
<!DOCTYPE population SYSTEM "http://www.matsim.org/files/dtd/population_v5.dtd">
 
<population>

<!-- ====================================================================== -->

	<person id="pizza_consumer_0" employed="no">
		<plan selected="yes">
			<act type="work" link="114" end_time="00:00:01" />
			<leg mode="dial_a_pizza" dep_time="00:00:01" trav_time="00:01:00" arr_time="00:01:01">
				<route type="links"></route>
			</leg> 
			<act type="eat_pizza" link="114"/>
		</plan>
	</person>

	<person id="pizza_consumer_1" employed="no">
		<plan selected="yes">
			<act type="work" link="144" end_time="00:05:00" />
			<leg mode="dial_a_pizza" dep_time="00:05:00" trav_time="00:01:00" arr_time="00:06:00">
				<route type="links"></route>
			</leg> 
			<act type="eat_pizza" link="144"/>
		</plan>
	</person>

	<person id="pizza_consumer_2" employed="no">
		<plan selected="yes">
			<act type="work" link="223" end_time="00:10:00" />
			<leg mode="dial_a_pizza" dep_time="00:10:00" trav_time="00:01:00" arr_time="00:11:00">
				<route type="links"></route>
			</leg> 
			<act type="eat_pizza" link="223"/>
		</plan>
	</person>

	<person id="pizza_consumer_3" employed="no">
		<plan selected="yes">
			<act type="work" link="234" end_time="00:15:00" />
			<leg mode="dial_a_pizza" dep_time="00:15:00" trav_time="00:01:00" arr_time="00:16:00">
				<route type="links"></route>
			</leg> 
			<act type="eat_pizza" link="234"/>
		</plan>
	</person>

	<person id="pizza_consumer_4" employed="no">
		<plan selected="yes">
			<act type="work" link="314" end_time="00:20:00" />
			<leg mode="dial_a_pizza" dep_time="00:20:00" trav_time="00:01:00" arr_time="00:21:00">
				<route type="links"></route>
			</leg> 
			<act type="eat_pizza" link="314"/>
		</plan>
	</person>

	<person id="pizza_consumer_5" employed="no">
		<plan selected="yes">
			<act type="work" link="333" end_time="00:25:00" />
			<leg mode="dial_a_pizza" dep_time="00:25:00" trav_time="00:01:00" arr_time="00:26:00">
				<route type="links"></route>
			</leg> 
			<act type="eat_pizza" link="333"/>
		</plan>
	</person>

	<person id="pizza_consumer_6" employed="no">
		<plan selected="yes">
			<act type="work" link="325" end_time="00:30:00" />
			<leg mode="dial_a_pizza" dep_time="00:30:00" trav_time="00:01:00" arr_time="00:31:00">
				<route type="links"></route>
			</leg> 
			<act type="eat_pizza" link="325"/>
		</plan>
	</person>

	<person id="pizza_consumer_7" employed="no">
		<plan selected="yes">
			<act type="work" link="412" end_time="00:35:00" />
			<leg mode="dial_a_pizza" dep_time="00:35:00" trav_time="00:01:00" arr_time="00:36:00">
				<route type="links"></route>
			</leg> 
			<act type="eat_pizza" link="412"/>
		</plan>
	</person>

	<person id="pizza_consumer_8" employed="no">
		<plan selected="yes">
			<act type="work" link="455" end_time="00:40:00" />
			<leg mode="dial_a_pizza" dep_time="00:40:00" trav_time="00:01:00" arr_time="00:41:00">
				<route type="links"></route>
			</leg> 
			<act type="eat_pizza" link="455"/>
		</plan>
	</person>

	<person id="pizza_consumer_9" employed="no">
		<plan selected="yes">
			<act type="work" link="139" end_time="00:45:00" />
			<leg mode="dial_a_pizza" dep_time="00:45:00" trav_time="00:01:00" arr_time="00:46:00">
				<route type="links"></route>
			</leg> 
			<act type="eat_pizza" link="139"/>
		</plan>
	</person>

<!-- ====================================================================== -->

</population>
