<?xml version="1.0" encoding="UTF-8"?>
<!DOCTYPE transitSchedule SYSTEM "http://www.matsim.org/files/dtd/transitSchedule_v1.dtd">
<transitSchedule>
<transitStops>
<!--<stopFacility id="192" x="05" y="0" linkRefId="1-2"/>-->
<stopFacility id="293" x="15" y="0" linkRefId="2-3"/>
<stopFacility id="495" x="2005" y="0" linkRefId="4-5"/>
<!--<stopFacility id="596" x="2015" y="0" linkRefId="5-6"/>-->

<!--<stopFacility id="65" x="2010" y="0" linkRefId="6-5"/>-->
<stopFacility id="54" x="2000" y="0" linkRefId="5-4"/>
<stopFacility id="32" x="10.0" y="0" linkRefId="3-2"/>

<stopFacility id="47" x="1010" y="1000" linkRefId="7-8"/>
<stopFacility id="910" x="990.0" y="1000.0" linkRefId="9-10"/>

</transitStops>
<transitLine id="gelb">
  <transitRoute id="gelb_1">
    <transportMode>pt</transportMode>
    <routeProfile>
      <!--<stop refId="192" departureOffset="00:00:00" arrivalOffset="00:00:00" awaitDeparture="true"/>-->
      <stop refId="293" departureOffset="00:00:30" arrivalOffset="00:00:30" awaitDeparture="true"/>
      <stop refId="495" departureOffset="00:02:00" arrivalOffset="00:02:00" awaitDeparture="true"/>
      <!--<stop refId="596" departureOffset="00:30:30" arrivalOffset="00:30:30" awaitDeparture="true"/>-->
    </routeProfile>
    <route>
      <link refId="1bis-1"/>
      <link refId="1-2"/>
      <link refId="2-3"/>
      <link refId="3-4"/>
      <link refId="4-5"/>
      <link refId="5-6"/>
      <link refId="6-6bis"/>
    </route>
    <departures>
      <departure id="1000" departureTime="05:05:00" vehicleRefId="1000"/>
    </departures>
  </transitRoute>
</transitLine>

<transitLine id="rot">
  <transitRoute id="rot_1">
    <transportMode>pt</transportMode>
    <routeProfile>
      <stop refId="54" departureOffset="00:00:00" arrivalOffset="00:00:00" awaitDeparture="true"/>
      <stop refId="47" departureOffset="00:02:00" arrivalOffset="00:02:00" awaitDeparture="true"/>
    </routeProfile>
    <route>
      <link refId="6bis-6"/>
      <link refId="6-5"/>
      <link refId="5-4"/>
      <link refId="4-7"/>
      <link refId="7-8"/>
      <link refId="8-8bis"/>
      <link refId="8bis-8cis"/>
    </route>
    <departures>
      <departure id="1001" departureTime="05:20:00" vehicleRefId="1001"/>
    </departures>
  </transitRoute>
</transitLine>

<transitLine id="blau">
  <transitRoute id="blau_1">
    <transportMode>pt</transportMode>
    <routeProfile>
      <stop refId="910" departureOffset="00:00:00" arrivalOffset="00:00:00" awaitDeparture="true"/>
      <stop refId="32" departureOffset="00:02:00" arrivalOffset="00:02:00" awaitDeparture="true"/>
    </routeProfile>
    <route>
      <link refId="9cis-9bis"/>
      <link refId="9bis-9"/>
      <link refId="9-10"/>
      <link refId="10-3"/>
      <link refId="3-2"/>
      <link refId="2-1"/>
      <link refId="1-1bis"/>
    </route>
    <departures>
      <departure id="1002" departureTime="05:30:00" vehicleRefId="1002"/>
    </departures>
  </transitRoute>
</transitLine>

</transitSchedule>
