<?xml version="1.0" encoding="utf-8"?>
<!DOCTYPE plans SYSTEM "http://www.matsim.org/files/dtd/plans_v4.dtd">

<plans>

<!-- ====================================================================== -->

		<person id="person1" sex="m" age="40" employed="no">
		<plan selected="yes">
			<act type="home" x="1200.0" y="7700.0" start_time="00:00:00" dur="08:06:25" end_time="08:06:25" />
			<leg mode="car" dep_time="08:06:25" trav_time="00:10:00" arr_time="08:16:25">
			</leg>
			<act type="work" x="577.0" y="174.0" start_time="08:16:25" end_time="16:31:47" />
			<leg mode="car" dep_time="16:31:47" trav_time="00:10:00" arr_time="16:41:47">
			</leg>
			<act type="home" x="1200.0" y="7700.0" start_time="16:41:47" />
		</plan>

	</person>

<!-- ====================================================================== -->

	<person id="person2" sex="m" age="80" employed="no">
		<plan selected="yes">
			<act type="home" x="2900.0" y="2800.0" start_time="00:00:00" dur="10:09:48" end_time="10:09:48" />
			<leg mode="car" dep_time="10:09:48" trav_time="00:20:00" arr_time="10:29:48">
			</leg>
			<act type="work" x="51.0" y="338.0" start_time="10:29:48" end_time="11:13:55" />
			<leg mode="car" dep_time="11:13:55" trav_time="00:30:00" arr_time="11:43:55">
			</leg>
			<act type="home" x="2900.0" y="2800.0" start_time="11:43:55" end_time="11:48:53" />
			<leg mode="car" dep_time="11:48:53" trav_time="00:15:00" arr_time="12:03:53">
			</leg>
			<act type="work" x="797.0" y="213.0" start_time="12:03:53" end_time="12:29:00" />
			<leg mode="car" dep_time="12:29:00" trav_time="00:20:00" arr_time="12:49:00">
			</leg>
			<act type="home" x="2900.0" y="2800.0" start_time="12:49:00" />
		</plan>

	</person>

<!-- ====================================================================== -->

	<person id="person3" sex="m" age="80" employed="no">
		<plan selected="yes">
			<act type="home" x="4200.0" y="4400.0" start_time="00:00:00" dur="10:12:09" end_time="10:12:09" />
			<leg mode="car" dep_time="10:12:09" trav_time="00:20:00" arr_time="10:32:09">
			</leg>
			<act type="work" x="188.0" y="388.0" start_time="10:32:09" end_time="11:17:19" />
			<leg mode="car" dep_time="11:17:19" trav_time="00:30:00" arr_time="11:47:19">
			</leg>
			<act type="home" x="4200.0" y="4400.0" start_time="11:47:19" end_time="12:14:55" />
			<leg mode="car" dep_time="12:14:55" trav_time="00:15:00" arr_time="12:29:55">
			</leg>
			<act type="work" x="81.0" y="275.0" start_time="12:29:55" end_time="12:37:07" />
			<leg mode="car" dep_time="12:37:07" trav_time="00:20:00" arr_time="12:57:07">
			</leg>
			<act type="home" x="4200.0" y="4400.0" start_time="12:57:07" />
		</plan>

	</person>

<!-- ====================================================================== -->

	<person id="person4" sex="m" age="80" employed="no">
		<plan selected="yes">
			<act type="home" x="5200.0" y="2600.0" start_time="00:00:00" dur="10:08:45" end_time="10:08:45" />
			<leg mode="car" dep_time="10:08:45" trav_time="00:20:00" arr_time="10:28:45">
			</leg>
			<act type="work" x="211.0" y="445.0" start_time="10:28:45" end_time="11:03:40" />
			<leg mode="car" dep_time="11:03:40" trav_time="00:30:00" arr_time="11:33:40">
			</leg>
			<act type="home" x="5200.0" y="2600.0" start_time="11:33:40" end_time="11:55:44" />
			<leg mode="car" dep_time="11:55:44" trav_time="00:15:00" arr_time="12:10:44">
			</leg>
			<act type="work" x="422.0" y="304.0" start_time="12:10:44" end_time="12:46:54" />
			<leg mode="car" dep_time="12:46:54" trav_time="00:20:00" arr_time="13:06:54">
			</leg>
			<act type="home" x="5200.0" y="2600.0" start_time="13:06:54" />
		</plan>

	</person>

<!-- ====================================================================== -->

	<person id="person5" employed="no">
		<plan selected="yes">
			<act type="home" x="5200.0" y="5500.0" end_time="06:54:37" />
			<leg mode="car">
			</leg>
			<act type="work" x="33.0" y="262.0" end_time="19:12:45" />
			<leg mode="car">
			</leg>
			<act type="home" x="5200.0" y="5500.0" end_time="06:54:37" />
		</plan>

	</person>

<!-- ====================================================================== -->


	<person id="person6" employed="no">
		<plan selected="yes">
			<act type="home" x="7900.0" y="7500.0" end_time="03:03:18" />
			<leg mode="car">
			</leg>
			<act type="work" x="232.0" y="159.0" end_time="16:08:15" />
			<leg mode="car">
			</leg>
			<act type="home" x="7900.0" y="7500.0" end_time="03:03:18" />
		</plan>

	</person>

<!-- ====================================================================== -->

	<person id="person7" employed="no">
		<plan selected="yes">
			<act type="home" x="4900.0" y="8900.0" end_time="06:33:01" />
			<leg mode="car">
			</leg>
			<act type="home" x="5000.0" y="9000.0" />
		</plan>

	</person>

<!-- ====================================================================== -->

	<person id="person8" employed="no">
		<plan selected="yes">
			<act type="home" x="8400.0" y="5200.0" end_time="23:38:10" />
			<leg mode="car">
			</leg>
			<act type="home" x="8400.0" y="5200.0" />
		</plan>

	</person>

<!-- ====================================================================== -->

</plans>
