<?xml version="1.0" encoding="utf-8"?>
<!DOCTYPE plans SYSTEM "http://www.matsim.org/files/dtd/plans_v4.dtd">

<plans>

<!-- ====================================================================== -->

	<person id="0" employed="no">
		<plan selected="yes">
			<act type="h" link="A" end_time="00:00:00" />
			<leg mode="car" />
			<act type="h" link="C" start_time="00:15:00" />
		</plan>
	</person>

	<person id="1" employed="no">
		<plan selected="yes">
			<act type="h" link="A" end_time="00:00:00" />
			<leg mode="car" />
			<act type="h" link="C" start_time="00:15:00" />
		</plan>
	</person>

	<person id="2" employed="no">
		<plan selected="yes">
			<act type="h" link="A" end_time="00:00:00" />
			<leg mode="car" />
			<act type="h" link="C" start_time="00:15:00" />
		</plan>
	</person>

	<person id="3" employed="no">
		<plan selected="yes">
			<act type="h" link="A" end_time="00:00:00" />
			<leg mode="car" />
			<act type="h" link="C" start_time="00:15:00" />
		</plan>
	</person>

	<person id="4" employed="no">
		<plan selected="yes">
			<act type="h" link="A" end_time="00:00:00" />
			<leg mode="car" />
			<act type="h" link="C" start_time="00:15:00" />
		</plan>
	</person>

	<person id="5" employed="no">
		<plan selected="yes">
			<act type="h" link="A" end_time="00:00:00" />
			<leg mode="car" />
			<act type="h" link="C" start_time="00:15:00" />
		</plan>
	</person>

	<person id="6" employed="no">
		<plan selected="yes">
			<act type="h" link="A" end_time="00:00:00" />
			<leg mode="car" />
			<act type="h" link="C" start_time="00:15:00" />
		</plan>
	</person>

	<person id="7" employed="no">
		<plan selected="yes">
			<act type="h" link="A" end_time="00:00:00" />
			<leg mode="car" />
			<act type="h" link="C" start_time="00:15:00" />
		</plan>
	</person>

	<person id="8" employed="no">
		<plan selected="yes">
			<act type="h" link="A" end_time="00:00:00" />
			<leg mode="car" />
			<act type="h" link="C" start_time="00:15:00" />
		</plan>
	</person>

	<person id="9" employed="no">
		<plan selected="yes">
			<act type="h" link="A" end_time="00:00:00" />
			<leg mode="car" />
			<act type="h" link="C" start_time="00:15:00" />
		</plan>
	</person>

	<person id="10" employed="no">
		<plan selected="yes">
			<act type="h" link="A" end_time="00:00:00" />
			<leg mode="car" />
			<act type="h" link="C" start_time="00:15:00" />
		</plan>
	</person>

	<!--person id="11" employed="no">
		<plan selected="yes">
			<act type="h" link="A" end_time="00:00:00" />
			<leg mode="car" />
			<act type="h" link="C" start_time="00:15:00" />
		</plan>
	</person>

	<person id="12" employed="no">
		<plan selected="yes">
			<act type="h" link="A" end_time="00:00:00" />
			<leg mode="car" />
			<act type="h" link="C" start_time="00:15:00" />
		</plan>
	</person>

	<person id="13" employed="no">
		<plan selected="yes">
			<act type="h" link="A" end_time="00:00:00" />
			<leg mode="car" />
			<act type="h" link="C" start_time="00:15:00" />
		</plan>
	</person>

	<person id="14" employed="no">
		<plan selected="yes">
			<act type="h" link="A" end_time="00:00:00" />
			<leg mode="car" />
			<act type="h" link="C" start_time="00:15:00" />
		</plan>
	</person>

	<person id="15" employed="no">
		<plan selected="yes">
			<act type="h" link="A" end_time="00:00:00" />
			<leg mode="car" />
			<act type="h" link="C" start_time="00:15:00" />
		</plan>
	</person>

	<person id="16" employed="no">
		<plan selected="yes">
			<act type="h" link="A" end_time="00:00:00" />
			<leg mode="car" />
			<act type="h" link="C" start_time="00:15:00" />
		</plan>
	</person>

	<person id="17" employed="no">
		<plan selected="yes">
			<act type="h" link="A" end_time="00:00:00" />
			<leg mode="car" />
			<act type="h" link="C" start_time="00:15:00" />
		</plan>
	</person>

	<person id="18" employed="no">
		<plan selected="yes">
			<act type="h" link="A" end_time="00:00:00" />
			<leg mode="car" />
			<act type="h" link="C" start_time="00:15:00" />
		</plan>
	</person>

	<person id="19" employed="no">
		<plan selected="yes">
			<act type="h" link="A" end_time="00:00:00" />
			<leg mode="car" />
			<act type="h" link="C" start_time="00:15:00" />
		</plan>
	</person>

	<person id="20" employed="no">
		<plan selected="yes">
			<act type="h" link="A" end_time="00:00:00" />
			<leg mode="car" />
			<act type="h" link="C" start_time="00:15:00" />
		</plan>
	</person-->

</plans>
