<?xml version="1.0" encoding="utf-8"?>
<!DOCTYPE network SYSTEM "http://www.matsim.org/files/dtd/network_v1.dtd">

<network>

<!-- ====================================================================== -->

	<nodes>
		<node id="1000115" x="4593511.5" y="5821409.0" type="90" />
		<node id="1000116" x="4593340.5" y="5821668.0" type="90" />
		<node id="1000117" x="4593141.0" y="5821672.0" type="90" />
		<node id="1000133" x="4593696.5" y="5822345.0" type="90" />
		<node id="1000134" x="4593646.0" y="5822680.5" type="10" />
		<node id="1000138" x="4594012.5" y="5822025.5" type="90" />
		<node id="1000142" x="4593866.5" y="5822793.5" type="0" />
		<node id="1000144" x="4594428.0" y="5822308.5" type="90" />
		<node id="1000145" x="4594428.0" y="5822055.5" type="90" />
		<node id="1000146" x="4594585.0" y="5821701.0" type="90" />
		<node id="1000147" x="4594799.5" y="5821387.0" type="90" />
		<node id="1000151" x="4594017.5" y="5821475.5" type="90" />
		<node id="1000152" x="4593999.5" y="5821291.5" type="90" />
		<node id="1000156" x="4594040.0" y="5821143.0" type="90" />
		<node id="1000157" x="4594070.0" y="5821049.0" type="90" />
		<node id="1000158" x="4594131.5" y="5820749.0" type="90" />
		<node id="1000159" x="4593812.0" y="5820660.0" type="90" />
		<node id="1000164" x="4594119.5" y="5820426.0" type="90" />
		<node id="1000165" x="4593759.0" y="5820510.5" type="90" />
		<node id="1000166" x="4593640.0" y="5820340.0" type="90" />
		<node id="1000172" x="4594246.0" y="5820656.0" type="90" />
		<node id="1000173" x="4594379.0" y="5820445.5" type="90" />
		<node id="1000175" x="4593419.0" y="5821213.0" type="90" />
		<node id="1000177" x="4595189.5" y="5821768.0" type="90" />
		<node id="1000179" x="4594506.0" y="5821349.0" type="90" />
		<node id="1000180" x="4594618.5" y="5821113.5" type="90" />
		<node id="1000186" x="4595285.0" y="5820803.0" type="90" />
		<node id="1000188" x="4595029.0" y="5820563.5" type="90" />
		<node id="1000189" x="4594804.0" y="5820338.5" type="90" />
		<node id="1000190" x="4594774.0" y="5820225.0" type="90" />
		<node id="1000191" x="4594300.0" y="5819903.5" type="90" />
		<node id="1000192" x="4595393.5" y="5820546.5" type="90" />
		<node id="1000193" x="4595331.5" y="5820435.0" type="90" />
		<node id="1000201" x="4594602.5" y="5820617.5" type="90" />
		<node id="1000203" x="4595229.0" y="5821522.0" type="90" />
		<node id="1000204" x="4595190.5" y="5821245.0" type="90" />
		<node id="1000205" x="4595406.5" y="5821171.5" type="90" />
		<node id="1000215" x="4595501.5" y="5821441.5" type="90" />
		<node id="1000216" x="4595536.5" y="5821606.5" type="90" />
		<node id="1000217" x="4595387.5" y="5821773.5" type="90" />
		<node id="1000218" x="4595719.5" y="5821916.5" type="90" />
		<node id="1000221" x="4596388.0" y="5822168.0" type="90" />
		<node id="1000222" x="4596090.5" y="5822359.5" type="90" />
		<node id="1000223" x="4596027.5" y="5822267.0" type="90" />
		<node id="1000224" x="4596082.5" y="5822046.0" type="90" />
		<node id="1000225" x="4596392.0" y="5821862.5" type="90" />
		<node id="1000232" x="4596610.0" y="5822663.0" type="90" />
		<node id="1000233" x="4596577.5" y="5822433.0" type="90" />
		<node id="1000244" x="4596351.5" y="5821459.5" type="90" />
		<node id="1000245" x="4596852.5" y="5821648.5" type="90" />
		<node id="1000249" x="4596650.5" y="5821739.5" type="90" />
		<node id="1000251" x="4596573.0" y="5822218.0" type="90" />
		<node id="1000253" x="4596310.0" y="5822023.0" type="90" />
		<node id="1000277" x="4595288.5" y="5822584.5" type="90" />
		<node id="1000281" x="4595649.0" y="5822213.0" type="0" />
		<node id="1000285" x="4594379.5" y="5822506.0" type="90" />
		<node id="1000286" x="4594541.0" y="5822810.0" type="90" />
		<node id="1000289" x="4594683.5" y="5822400.5" type="90" />
		<node id="1000293" x="4594610.5" y="5822154.5" type="90" />
		<node id="1000296" x="4594816.0" y="5822161.5" type="90" />
		<node id="1000297" x="4594427.0" y="5823401.0" type="90" />
		<node id="1000299" x="4595744.5" y="5823763.5" type="90" />
		<node id="1000300" x="4595343.5" y="5822250.0" type="90" />
		<node id="1000301" x="4595591.5" y="5823173.0" type="90" />
		<node id="1000302" x="4595925.0" y="5822953.5" type="90" />
		<node id="1000303" x="4595816.5" y="5823185.0" type="90" />
		<node id="1000304" x="4595790.5" y="5823518.0" type="90" />
		<node id="1000307" x="4596181.5" y="5822994.5" type="90" />
		<node id="1000308" x="4596527.0" y="5823226.0" type="10" />
		<node id="1000311" x="4596960.0" y="5822997.5" type="90" />
		<node id="1000314" x="4595931.5" y="5822617.5" type="0" />
		<node id="1000316" x="4595353.0" y="5822052.5" type="90" />
		<node id="1000319" x="4594220.5" y="5819544.0" type="90" />
		<node id="1000336" x="4597317.0" y="5820150.5" type="90" />
		<node id="1000337" x="4597704.5" y="5819898.5" type="90" />
		<node id="1000338" x="4596568.0" y="5819857.0" type="90" />
		<node id="1000339" x="4596745.0" y="5819514.5" type="90" />
		<node id="1000341" x="4596959.5" y="5819142.0" type="90" />
		<node id="1000342" x="4597189.0" y="5819296.0" type="90" />
		<node id="1000345" x="4596312.0" y="5820867.5" type="90" />
		<node id="1000348" x="4597330.5" y="5821317.5" type="90" />
		<node id="1000351" x="4597752.0" y="5820856.5" type="90" />
		<node id="1000362" x="4598291.0" y="5821367.0" type="90" />
		<node id="1000363" x="4598699.0" y="5821574.0" type="90" />
		<node id="1000367" x="4597688.0" y="5821765.5" type="90" />
		<node id="1000370" x="4597612.5" y="5821466.0" type="0" />
		<node id="1000373" x="4597764.0" y="5820155.5" type="90" />
		<node id="1000376" x="4598784.0" y="5821202.0" type="90" />
		<node id="1000381" x="4598757.0" y="5820444.5" type="90" />
		<node id="1000393" x="4598553.0" y="5819734.0" type="90" />
		<node id="1000395" x="4598637.5" y="5821806.0" type="90" />
		<node id="1000398" x="4598669.0" y="5822323.5" type="90" />
		<node id="1000399" x="4598451.0" y="5822233.5" type="90" />
		<node id="1000400" x="4598382.0" y="5821939.5" type="90" />
		<node id="1000403" x="4597486.0" y="5821987.5" type="90" />
		<node id="1000419" x="4597387.0" y="5822984.5" type="90" />
		<node id="1000422" x="4597481.0" y="5823412.0" type="90" />
		<node id="1000423" x="4597774.0" y="5823191.5" type="90" />
		<node id="1000425" x="4598032.5" y="5823213.0" type="90" />
		<node id="1000427" x="4598250.0" y="5822605.5" type="90" />
		<node id="1000428" x="4598129.0" y="5822810.0" type="90" />
		<node id="1000432" x="4597497.5" y="5823744.0" type="90" />
		<node id="1000536" x="4597984.5" y="5822277.0" type="90" />
		<node id="1000537" x="4593226.0" y="5821780.5" type="90" />
		<node id="1000541" x="4593115.0" y="5822483.5" type="90" />
		<node id="1000545" x="4593135.5" y="5822048.5" type="90" />
		<node id="1000552" x="4593133.0" y="5822164.5" type="90" />
		<node id="1000576" x="4595110.5" y="5823846.5" type="90" />
		<node id="1000578" x="4594097.0" y="5823366.5" type="90" />
		<node id="1000579" x="4593452.5" y="5823675.0" type="90" />
		<node id="1000618" x="4594390.5" y="5819543.0" type="90" />
		<node id="1000636" x="4594637.0" y="5819005.5" type="90" />
		<node id="1000644" x="4595790.0" y="5821502.0" type="90" />
		<node id="1000645" x="4596086.0" y="5821703.5" type="90" />
		<node id="1000647" x="4595726.5" y="5821317.0" type="90" />
		<node id="1000650" x="4593186.5" y="5820753.0" type="0" />
		<node id="1000696" x="4595097.0" y="5822100.0" type="90" />
		<node id="1000701" x="4596123.5" y="5822525.0" type="90" />
		<node id="1000738" x="4593267.5" y="5820681.5" type="0" />
		<node id="1371" x="4593985.5" y="5820244.5" type="90" />
		<node id="2182" x="4596257.5" y="5821927.5" type="10" />
		<node id="2531" x="4593455.0" y="5819701.0" type="20" />
		<node id="2532" x="4593461.5" y="5819761.0" type="10" />
		<node id="2533" x="4593593.0" y="5819641.0" type="10" />
		<node id="2534" x="4593544.0" y="5819612.0" type="10" />
		<node id="2564" x="4594128.0" y="5819078.0" type="10" />
		<node id="2565" x="4594463.0" y="5819004.0" type="10" />
		<node id="2566" x="4594431.0" y="5819179.0" type="10" />
		<node id="2567" x="4593816.0" y="5819137.0" type="30" />
		<node id="2568" x="4594170.0" y="5819276.0" type="10" />
		<node id="2569" x="4594180.0" y="5819324.0" type="10" />
		<node id="2570" x="4594430.5" y="5819230.5" type="10" />
		<node id="2571" x="4594411.5" y="5819379.0" type="10" />
		<node id="2572" x="4594344.0" y="5819770.0" type="10" />
		<node id="2573" x="4594232.5" y="5819603.0" type="20" />
		<node id="2576" x="4593846.0" y="5819353.0" type="10" />
		<node id="2577" x="4593841.0" y="5819289.0" type="10" />
		<node id="2594" x="4594852.0" y="5819034.0" type="10" />
		<node id="2598" x="4594881.0" y="5819196.0" type="10" />
		<node id="2600" x="4594878.0" y="5819341.0" type="90" />
		<node id="2601" x="4594898.0" y="5819271.0" type="10" />
		<node id="2602" x="4595145.0" y="5819277.0" type="10" />
		<node id="2603" x="4594791.5" y="5819584.5" type="10" />
		<node id="2617" x="4595537.0" y="5819087.0" type="70" />
		<node id="2622" x="4595999.5" y="5819322.5" type="70" />
		<node id="2623" x="4595799.0" y="5819668.0" type="10" />
		<node id="2624" x="4595703.0" y="5819464.0" type="10" />
		<node id="2625" x="4595627.0" y="5819290.0" type="10" />
		<node id="2644" x="4596538.0" y="5819073.5" type="10" />
		<node id="2645" x="4596569.5" y="5819004.5" type="70" />
		<node id="2647" x="4596484.5" y="5819627.0" type="10" />
		<node id="2648" x="4596673.5" y="5820097.0" type="20" />
		<node id="2649" x="4596687.0" y="5819389.0" type="10" />
		<node id="2650" x="4596637.5" y="5819283.5" type="10" />
		<node id="2651" x="4596295.0" y="5819710.0" type="10" />
		<node id="2652" x="4596182.0" y="5819755.0" type="10" />
		<node id="2653" x="4596419.0" y="5819360.0" type="10" />
		<node id="2654" x="4596149.0" y="5819315.5" type="90" />
		<node id="2656" x="4596389.5" y="5819373.0" type="10" />
		<node id="2658" x="4596414.5" y="5819379.0" type="10" />
		<node id="2659" x="4596408.5" y="5819406.0" type="10" />
		<node id="2701" x="4597243.0" y="5819010.5" type="10" />
		<node id="2702" x="4597354.5" y="5819205.0" type="10" />
		<node id="2704" x="4596973.5" y="5819405.5" type="10" />
		<node id="2705" x="4597311.0" y="5819445.0" type="90" />
		<node id="2745" x="4593636.0" y="5823257.0" type="90" />
		<node id="2786" x="4593127.0" y="5820361.0" type="10" />
		<node id="2787" x="4593332.5" y="5822519.5" type="0" />
		<node id="2788" x="4593320.0" y="5819941.0" type="90" />
		<node id="2789" x="4595187.0" y="5820573.0" type="20" />
		<node id="2791" x="4593343.5" y="5819826.0" type="10" />
		<node id="2792" x="4593243.5" y="5820426.5" type="10" />
		<node id="2793" x="4593189.0" y="5820657.0" type="10" />
		<node id="2795" x="4593592.0" y="5820846.5" type="10" />
		<node id="2796" x="4593546.5" y="5820488.5" type="10" />
		<node id="2797" x="4593096.0" y="5821178.0" type="10" />
		<node id="2798" x="4593129.0" y="5821393.0" type="10" />
		<node id="2799" x="4593559.0" y="5821413.0" type="10" />
		<node id="2800" x="4593142.0" y="5821590.0" type="80" />
		<node id="2802" x="4593143.5" y="5821746.0" type="80" />
		<node id="2804" x="4593528.5" y="5821227.0" type="10" />
		<node id="2805" x="4593131.0" y="5822407.0" type="10" />
		<node id="2807" x="4593610.0" y="5821088.0" type="10" />
		<node id="2808" x="4593882.0" y="5821121.0" type="10" />
		<node id="2809" x="4594195.0" y="5821164.5" type="10" />
		<node id="2812" x="4594150.0" y="5821501.0" type="20" />
		<node id="2813" x="4593360.5" y="5823575.0" type="20" />
		<node id="2823" x="4593914.5" y="5819898.0" type="70" />
		<node id="2824" x="4593760.5" y="5820194.5" type="20" />
		<node id="2825" x="4594292.0" y="5822041.5" type="20" />
		<node id="2826" x="4594218.0" y="5820158.0" type="10" />
		<node id="2827" x="4594256.0" y="5820039.0" type="10" />
		<node id="2828" x="4594042.5" y="5819834.5" type="20" />
		<node id="2829" x="4593959.0" y="5819941.0" type="10" />
		<node id="2830" x="4594637.0" y="5821368.0" type="10" />
		<node id="2831" x="4594078.5" y="5820553.0" type="10" />
		<node id="2832" x="4594023.0" y="5820713.0" type="10" />
		<node id="2833" x="4594430.0" y="5820899.5" type="90" />
		<node id="2834" x="4593838.0" y="5821270.5" type="10" />
		<node id="2835" x="4594207.5" y="5821064.5" type="30" />
		<node id="2836" x="4594409.0" y="5821090.0" type="10" />
		<node id="2837" x="4594376.5" y="5821337.5" type="10" />
		<node id="2838" x="4594183.5" y="5821311.0" type="10" />
		<node id="2839" x="4594356.0" y="5821525.5" type="20" />
		<node id="2840" x="4593806.0" y="5821450.0" type="10" />
		<node id="2841" x="4593747.0" y="5821937.0" type="30" />
		<node id="2842" x="4594278.0" y="5822104.5" type="20" />
		<node id="2843" x="4594260.0" y="5822374.0" type="10" />
		<node id="2844" x="4594234.5" y="5822471.5" type="10" />
		<node id="2846" x="4593909.5" y="5822490.5" type="90" />
		<node id="2847" x="4593812.0" y="5822579.0" type="70" />
		<node id="2848" x="4593598.0" y="5822656.0" type="20" />
		<node id="2850" x="4593711.0" y="5822716.0" type="20" />
		<node id="2851" x="4594117.0" y="5822634.5" type="90" />
		<node id="2852" x="4594265.5" y="5823149.5" type="10" />
		<node id="2853" x="4597144.5" y="5821545.0" type="10" />
		<node id="2854" x="4597070.0" y="5821610.0" type="10" />
		<node id="2855" x="4593959.5" y="5822840.5" type="10" />
		<node id="2856" x="4594158.0" y="5822926.5" type="20" />
		<node id="2857" x="4594412.0" y="5822980.0" type="10" />
		<node id="2858" x="4597042.5" y="5821507.5" type="10" />
		<node id="2863" x="4595040.5" y="5820249.0" type="10" />
		<node id="2864" x="4594515.0" y="5820197.0" type="10" />
		<node id="2865" x="4594958.0" y="5820049.0" type="90" />
		<node id="2866" x="4594468.5" y="5820603.0" type="10" />
		<node id="2867" x="4594825.5" y="5820643.5" type="90" />
		<node id="2868" x="4594921.0" y="5821154.5" type="90" />
		<node id="2869" x="4595076.0" y="5821428.0" type="90" />
		<node id="2870" x="4595162.5" y="5821932.0" type="20" />
		<node id="2871" x="4594997.0" y="5822093.5" type="20" />
		<node id="2872" x="4594639.5" y="5822228.5" type="10" />
		<node id="2873" x="4594702.0" y="5822629.0" type="20" />
		<node id="2874" x="4594955.5" y="5822737.5" type="10" />
		<node id="2875" x="4594832.0" y="5823062.0" type="90" />
		<node id="2876" x="4595031.0" y="5823086.0" type="10" />
		<node id="2877" x="4595241.0" y="5820689.0" type="10" />
		<node id="2879" x="4594814.0" y="5823716.0" type="10" />
		<node id="2880" x="4594942.0" y="5823495.0" type="91" />
		<node id="2884" x="4595520.0" y="5820038.5" type="10" />
		<node id="2885" x="4595899.0" y="5819880.0" type="40" />
		<node id="2886" x="4595018.0" y="5820663.0" type="10" />
		<node id="2887" x="4595909.0" y="5820555.0" type="90" />
		<node id="2888" x="4595836.0" y="5820654.0" type="20" />
		<node id="2889" x="4594590.0" y="5822071.5" type="30" />
		<node id="2890" x="4595262.5" y="5820700.0" type="10" />
		<node id="2891" x="4595753.0" y="5820802.0" type="10" />
		<node id="2892" x="4595931.0" y="5820886.0" type="90" />
		<node id="2893" x="4595627.0" y="5820933.5" type="90" />
		<node id="2894" x="4595523.0" y="5821045.5" type="10" />
		<node id="2895" x="4595306.0" y="5821300.0" type="22" />
		<node id="2896" x="4595700.5" y="5821418.5" type="10" />
		<node id="2897" x="4595832.0" y="5821276.0" type="70" />
		<node id="2899" x="4595980.5" y="5821632.0" type="27" />
		<node id="2900" x="4595731.0" y="5821337.0" type="10" />
		<node id="2901" x="4595451.0" y="5821694.5" type="10" />
		<node id="2902" x="4595337.0" y="5821849.5" type="70" />
		<node id="2903" x="4595395.5" y="5821981.0" type="70" />
		<node id="2904" x="4595292.5" y="5822087.5" type="10" />
		<node id="2905" x="4595337.5" y="5822212.5" type="20" />
		<node id="2906" x="4595552.0" y="5822240.5" type="10" />
		<node id="2907" x="4595790.0" y="5822157.0" type="10" />
		<node id="2908" x="4595938.0" y="5822133.5" type="10" />
		<node id="2909" x="4595446.0" y="5821907.5" type="90" />
		<node id="2910" x="4595373.0" y="5822372.0" type="10" />
		<node id="2911" x="4595345.0" y="5822483.0" type="90" />
		<node id="2912" x="4595879.5" y="5822378.5" type="90" />
		<node id="2914" x="4595768.5" y="5822671.5" type="10" />
		<node id="2915" x="4595479.5" y="5822752.5" type="20" />
		<node id="2916" x="4595347.0" y="5822778.5" type="90" />
		<node id="2917" x="4595197.0" y="5822769.0" type="10" />
		<node id="2918" x="4595807.5" y="5822796.0" type="91" />
		<node id="2920" x="4595961.0" y="5823107.0" type="10" />
		<node id="2921" x="4595532.0" y="5823068.0" type="21" />
		<node id="2922" x="4595393.5" y="5823156.5" type="30" />
		<node id="2923" x="4595310.0" y="5823210.5" type="20" />
		<node id="2925" x="4595412.5" y="5823273.5" type="90" />
		<node id="2926" x="4595447.0" y="5823253.5" type="20" />
		<node id="2928" x="4595547.5" y="5823437.5" type="20" />
		<node id="2929" x="4595657.0" y="5823281.0" type="10" />
		<node id="2930" x="4595516.0" y="5822897.0" type="91" />
		<node id="2932" x="4595892.0" y="5823691.0" type="90" />
		<node id="2935" x="4595922.0" y="5823689.5" type="10" />
		<node id="2941" x="4596377.0" y="5820216.0" type="20" />
		<node id="2943" x="4596123.0" y="5820370.0" type="10" />
		<node id="2944" x="4596445.5" y="5820381.5" type="70" />
		<node id="2945" x="4596503.0" y="5820359.0" type="20" />
		<node id="2946" x="4596828.0" y="5820475.5" type="90" />
		<node id="2947" x="4596561.5" y="5820334.5" type="70" />
		<node id="2948" x="4596488.0" y="5820168.0" type="20" />
		<node id="2949" x="4596598.5" y="5820578.5" type="10" />
		<node id="2950" x="4596265.0" y="5820703.0" type="10" />
		<node id="2951" x="4596084.0" y="5820749.0" type="90" />
		<node id="2952" x="4596347.5" y="5820996.0" type="90" />
		<node id="2953" x="4596789.0" y="5820995.0" type="10" />
		<node id="2954" x="4596364.0" y="5821216.0" type="10" />
		<node id="2955" x="4595982.0" y="5821237.5" type="71" />
		<node id="2957" x="4596297.0" y="5821602.0" type="90" />
		<node id="2959" x="4596153.5" y="5821777.0" type="10" />
		<node id="2960" x="4596160.5" y="5821993.0" type="10" />
		<node id="2962" x="4596360.0" y="5822119.0" type="27" />
		<node id="2963" x="4596713.0" y="5822144.0" type="90" />
		<node id="2964" x="4596707.5" y="5821713.5" type="10" />
		<node id="2965" x="4596467.5" y="5822286.0" type="10" />
		<node id="2966" x="4596178.0" y="5822484.0" type="10" />
		<node id="2967" x="4596271.0" y="5822654.5" type="10" />
		<node id="2969" x="4596725.0" y="5822624.5" type="10" />
		<node id="2970" x="4596763.5" y="5822618.0" type="10" />
		<node id="2971" x="4596328.0" y="5822378.5" type="10" />
		<node id="2972" x="4596396.0" y="5822887.0" type="10" />
		<node id="2973" x="4596597.0" y="5823442.5" type="10" />
		<node id="2976" x="4596735.0" y="5823845.0" type="10" />
		<node id="2977" x="4597040.5" y="5820344.0" type="10" />
		<node id="2978" x="4597515.5" y="5820454.5" type="10" />
		<node id="2979" x="4597200.0" y="5820640.0" type="10" />
		<node id="2980" x="4597225.5" y="5820751.5" type="90" />
		<node id="2981" x="4597305.0" y="5821187.0" type="10" />
		<node id="2982" x="4596943.0" y="5821259.0" type="20" />
		<node id="2983" x="4597371.5" y="5821502.0" type="10" />
		<node id="2984" x="4596981.5" y="5821591.0" type="10" />
		<node id="2985" x="4597556.0" y="5821153.0" type="90" />
		<node id="2986" x="4597594.5" y="5821227.0" type="70" />
		<node id="2987" x="4597134.0" y="5821213.0" type="90" />
		<node id="2988" x="4597403.0" y="5821719.0" type="90" />
		<node id="2989" x="4597139.0" y="5821855.0" type="90" />
		<node id="2990" x="4597538.0" y="5821933.0" type="20" />
		<node id="2992" x="4597343.5" y="5822092.0" type="10" />
		<node id="2993" x="4597190.0" y="5822275.0" type="90" />
		<node id="2994" x="4597142.0" y="5822078.5" type="10" />
		<node id="2996" x="4596967.5" y="5822503.5" type="70" />
		<node id="2997" x="4597181.0" y="5822705.0" type="10" />
		<node id="2998" x="4597100.0" y="5823183.0" type="10" />
		<node id="2999" x="4597342.0" y="5823529.0" type="10" />
		<node id="3000" x="4597026.5" y="5823711.0" type="10" />
		<node id="3252" x="4593220.0" y="5819617.0" type="70" />
		<node id="3394" x="4598348.0" y="5819364.0" type="70" />
		<node id="3395" x="4597827.0" y="5818953.0" type="70" />
		<node id="3398" x="4598028.0" y="5819643.0" type="10" />
		<node id="3399" x="4597762.5" y="5819531.5" type="90" />
		<node id="3400" x="4598196.0" y="5819609.0" type="70" />
		<node id="3401" x="4598341.0" y="5819826.0" type="10" />
		<node id="3482" x="4598086.0" y="5819964.5" type="80" />
		<node id="3483" x="4598092.5" y="5820857.5" type="90" />
		<node id="3484" x="4597840.5" y="5821060.0" type="10" />
		<node id="3485" x="4598370.5" y="5821006.0" type="70" />
		<node id="3486" x="4597657.0" y="5820661.0" type="90" />
		<node id="3487" x="4597914.0" y="5821547.0" type="10" />
		<node id="3488" x="4597899.5" y="5821424.5" type="10" />
		<node id="3489" x="4597799.5" y="5822167.0" type="90" />
		<node id="3490" x="4598090.0" y="5822326.5" type="10" />
		<node id="3491" x="4598353.0" y="5822461.5" type="10" />
		<node id="3492" x="4597659.0" y="5822806.0" type="90" />
		<node id="3493" x="4597927.5" y="5823086.0" type="10" />
		<node id="3494" x="4597634.5" y="5823304.5" type="10" />
		<node id="3495" x="4598081.5" y="5823267.0" type="10" />
		<node id="3496" x="4598317.5" y="5822931.5" type="90" />
		<node id="3500" x="4598606.0" y="5820486.5" type="10" />
		<node id="3502" x="4598767.0" y="5821110.0" type="10" />
		<node id="3503" x="4598718.5" y="5820919.0" type="10" />
		<node id="3505" x="4598746.0" y="5821545.5" type="20" />
		<node id="3509" x="4598558.0" y="5822566.0" type="10" />
		<node id="3513" x="4598653.0" y="5822608.0" type="90" />
		<node id="3515" x="4598450.0" y="5823664.0" type="10" />
		<node id="3761" x="4594600.0" y="5822592.0" type="10" />
		<node id="4057" x="4598669.0" y="5820727.0" type="10" />
		<node id="5002" x="4598761.5" y="5822107.5" type="10" />
		<node id="5003" x="4598551.0" y="5822014.0" type="10" />
		<node id="5004" x="4598291.0" y="5821897.0" type="10" />
		<node id="5005" x="4598047.0" y="5821519.0" type="90" />
		<node id="5006" x="4595164.0" y="5820524.5" type="20" />
		<node id="5007" x="4595463.0" y="5820347.0" type="70" />
		<node id="5008" x="4593898.5" y="5822918.0" type="10" />
		<node id="580" x="4595934.5" y="5823469.5" type="90" />
		<node id="6081" x="4594123.5" y="5821678.5" type="70" />
		<node id="6082" x="4594314.5" y="5821853.0" type="20" />
		<node id="6092" x="4594396.5" y="5821188.0" type="20" />
		<node id="6262" x="4594298.0" y="5820576.5" type="10" />
		<node id="6317" x="4594240.5" y="5820770.0" type="20" />
		<node id="6356" x="4593917.0" y="5821030.0" type="80" />
		<node id="6358" x="4593596.5" y="5820916.5" type="80" />
		<node id="6359" x="4593768.0" y="5821768.0" type="70" />
		<node id="6361" x="4593133.0" y="5822289.0" type="80" />
		<node id="6364" x="4593237.0" y="5819952.5" type="10" />
		<node id="6365" x="4593253.0" y="5819996.5" type="10" />
		<node id="6564" x="4593521.5" y="5821884.0" type="80" />
		<node id="6565" x="4593456.5" y="5822894.0" type="30" />
		<node id="6568" x="4593764.0" y="5823089.5" type="20" />
		<node id="6573" x="4598717.0" y="5821636.0" type="20" />
		<node id="6574" x="4598760.0" y="5821642.5" type="90" />
		<node id="6575" x="4593482.5" y="5822598.5" type="20" />
		<node id="6578" x="4594492.0" y="5820401.0" type="20" />
		<node id="6579" x="4593569.0" y="5820631.5" type="10" />
		<node id="6580" x="4594176.0" y="5820269.5" type="20" />
		<node id="6581" x="4594503.0" y="5820304.0" type="20" />
		<node id="6582" x="4595099.0" y="5820372.5" type="20" />
		<node id="6583" x="4595620.0" y="5821519.5" type="10" />
		<node id="6585" x="4598597.0" y="5821909.5" type="20" />
		<node id="6590" x="4595900.5" y="5822092.0" type="80" />
		<node id="7124" x="4593353.0" y="5822029.0" type="80" />
		<node id="7125" x="4593340.5" y="5821746.0" type="80" />
		<node id="7126" x="4593341.5" y="5821592.0" type="80" />
		<node id="7129" x="4593292.0" y="5820138.0" type="80" />
		<node id="7181" x="4593347.0" y="5822821.5" type="70" />
		<node id="7182" x="4595516.0" y="5820391.0" type="30" />
		<node id="7185" x="4594098.5" y="5823034.0" type="10" />
		<node id="990690" x="4593215.0" y="5820546.0" type="70" />
		<node id="990696" x="4593339.5" y="5820445.5" type="70" />
		<node id="en1" x="662433.0" y="9898853.0" />
		<node id="en2" x="662433.0" y="9898853.0" />
	</nodes>

<!-- ====================================================================== -->

	<links capperiod="12:00:00" effectivecellsize="7.5" effectivelanewidth="3.75">
		<link id="1103" from="2899" to="2962" length="734.0" freespeed="13.8888" capacity="22500.0" permlanes="2.0" oneway="1" origid="1790" />
		<link id="1104" from="2962" to="2899" length="717.0" freespeed="13.8888" capacity="22500.0" permlanes="2.0" oneway="1" origid="1790" />
		<link id="1457" from="2182" to="2960" length="117.04379522213043" freespeed="13.8888" capacity="33600.0" permlanes="2.0" oneway="1" origid="2026" />
		<link id="1458" from="2960" to="2182" length="117.04379522213043" freespeed="13.8888" capacity="33600.0" permlanes="2.0" oneway="1" origid="2026" />
		<link id="28181" from="2793" to="990690" length="114.00438588054409" freespeed="13.8888" capacity="28600.0" permlanes="2.0" oneway="1" origid="990799" />
		<link id="28182" from="990690" to="2793" length="114.00438588054409" freespeed="13.8888" capacity="28600.0" permlanes="2.0" oneway="1" origid="990799" />
		<link id="28189" from="2799" to="1000115" length="48.0" freespeed="8.3333" capacity="11200.0" permlanes="1.0" oneway="1" origid="990808" />
		<link id="28190" from="1000115" to="2799" length="48.0" freespeed="8.3333" capacity="11200.0" permlanes="1.0" oneway="1" origid="990808" />
		<link id="28191" from="7126" to="1000116" length="76.00657866263946" freespeed="8.3333" capacity="7000.0" permlanes="1.0" oneway="1" origid="990809" />
		<link id="28192" from="1000116" to="7126" length="76.00657866263946" freespeed="8.3333" capacity="7000.0" permlanes="1.0" oneway="1" origid="990809" />
		<link id="28193" from="2800" to="1000117" length="82.00609733428362" freespeed="8.3333" capacity="7000.0" permlanes="1.0" oneway="1" origid="990810" />
		<link id="28194" from="1000117" to="2800" length="82.00609733428362" freespeed="8.3333" capacity="7000.0" permlanes="1.0" oneway="1" origid="990810" />
		<link id="28201" from="2841" to="1000133" length="411.1134271706532" freespeed="8.3333" capacity="7000.0" permlanes="1.0" oneway="1" origid="990827" />
		<link id="28202" from="1000133" to="2841" length="411.1134271706532" freespeed="8.3333" capacity="7000.0" permlanes="1.0" oneway="1" origid="990827" />
		<link id="28203" from="1000133" to="1000134" length="339.27938339958115" freespeed="8.3333" capacity="7000.0" permlanes="1.0" oneway="1" origid="990828" />
		<link id="28204" from="1000134" to="1000133" length="339.27938339958115" freespeed="8.3333" capacity="7000.0" permlanes="1.0" oneway="1" origid="990828" />
		<link id="28205" from="2842" to="1000138" length="277.0040613420677" freespeed="13.8888" capacity="11200.0" permlanes="1.0" oneway="1" origid="990832" />
		<link id="28206" from="1000138" to="2842" length="277.0040613420677" freespeed="13.8888" capacity="11200.0" permlanes="1.0" oneway="1" origid="990832" />
		<link id="28207" from="2855" to="1000142" length="104.20172743289815" freespeed="13.8888" capacity="28000.0" permlanes="2.0" oneway="1" origid="990834" />
		<link id="28208" from="1000142" to="2855" length="104.20172743289815" freespeed="13.8888" capacity="28000.0" permlanes="2.0" oneway="1" origid="990834" />
		<link id="28209" from="2872" to="1000144" length="226.1244126581648" freespeed="13.8888" capacity="11200.0" permlanes="1.0" oneway="1" origid="990838" />
		<link id="28210" from="1000144" to="2872" length="226.1244126581648" freespeed="13.8888" capacity="11200.0" permlanes="1.0" oneway="1" origid="990838" />
		<link id="28211" from="2889" to="1000145" length="163.0" freespeed="8.3333" capacity="7000.0" permlanes="1.0" oneway="1" origid="990839" />
		<link id="28212" from="1000145" to="2889" length="163.0" freespeed="8.3333" capacity="7000.0" permlanes="1.0" oneway="1" origid="990839" />
		<link id="28213" from="2889" to="1000146" length="380.0" freespeed="8.3333" capacity="11200.0" permlanes="1.0" oneway="1" origid="990840" />
		<link id="28214" from="1000146" to="2889" length="380.0" freespeed="8.3333" capacity="11200.0" permlanes="1.0" oneway="1" origid="990840" />
		<link id="28215" from="2869" to="1000147" length="280.0" freespeed="13.8888" capacity="22400.0" permlanes="2.0" oneway="1" origid="990841" />
		<link id="28216" from="1000147" to="2869" length="280.0" freespeed="13.8888" capacity="22400.0" permlanes="2.0" oneway="1" origid="990841" />
		<link id="28217" from="2812" to="1000151" length="135.0" freespeed="13.8888" capacity="11200.0" permlanes="1.0" oneway="1" origid="990845" />
		<link id="28218" from="1000151" to="2812" length="135.0" freespeed="13.8888" capacity="11200.0" permlanes="1.0" oneway="1" origid="990845" />
		<link id="28219" from="2838" to="1000152" length="185.03040290719792" freespeed="13.8888" capacity="22400.0" permlanes="2.0" oneway="1" origid="990846" />
		<link id="28220" from="1000152" to="2838" length="185.03040290719792" freespeed="13.8888" capacity="22400.0" permlanes="2.0" oneway="1" origid="990846" />
		<link id="28221" from="2809" to="1000156" length="156.48402474374183" freespeed="13.8888" capacity="11200.0" permlanes="1.0" oneway="1" origid="990850" />
		<link id="28222" from="1000156" to="2809" length="156.48402474374183" freespeed="13.8888" capacity="22400.0" permlanes="2.0" oneway="1" origid="990850" />