<?xml version="1.0" ?>
<!DOCTYPE plans SYSTEM "http://www.matsim.org/files/dtd/plans_v4.dtd">
<plans>
<person id="1">
	<plan>
		<act type="h" facility="1" link="23" end_time="06:00" />
		
		<leg mode="car">
		</leg>
		
		<act type="w" facility="2" link="21" dur="10:00" />

		<leg mode="car">

		</leg>
		
		<act type="h" facility="1" link="23"  />
	</plan>
</person>
</plans>